<?xml version="1.0" ?>
<routes xmlns:xsi="&quot;http://www.w3.org/2001/XMLSchema-instance&quot;" xsi:noNamespaceSchemaLocation="&quot;http://sumo.dlr.de/xsd/routes_file.xsd&quot;">
	<trip id="2" depart="0" from="-260998164#3" to="15374898#0-AddedOffRampEdge"/>
	<trip id="3" depart="0.2" from="422685671#2" to="422688976#1"/>
	<trip id="4" depart="0.4" from="422688973" to="-318908683#1"/>
	<trip id="5" depart="0.6000000000000001" from="597602753#0" to="422688976#1"/>
	<trip id="6" depart="0.8" from="-260998164#3" to="422688976#1"/>
	<trip id="7" depart="1.0" from="422688973" to="-105681660#20"/>
	<trip id="8" depart="1.2" from="597602756#0" to="15374898#0-AddedOffRampEdge"/>
	<trip id="9" depart="1.4" from="422688973" to="-318908683#1"/>
	<trip id="10" depart="1.5999999999999999" from="422688973" to="-318908683#1"/>
	<trip id="11" depart="1.7999999999999998" from="422685671#2" to="-597602753#1"/>
	<trip id="12" depart="1.9999999999999998" from="422688973" to="-597602753#1"/>
	<trip id="13" depart="2.1999999999999997" from="-260998164#3" to="15374898#0-AddedOffRampEdge"/>
	<trip id="14" depart="2.4" from="597602756#0" to="-318908683#1"/>
	<trip id="15" depart="2.6" from="422688973" to="-105681660#20"/>
	<trip id="16" depart="2.8000000000000003" from="422685671#2" to="-597602753#1"/>
	<trip id="17" depart="3.0000000000000004" from="597602756#0" to="-105681660#20"/>
	<trip id="18" depart="3.2000000000000006" from="-260998164#3" to="-597602753#1"/>
	<trip id="19" depart="3.400000000000001" from="318908683#0" to="-105681660#20"/>
	<trip id="20" depart="3.600000000000001" from="597602753#0" to="422688976#1"/>
	<trip id="21" depart="3.800000000000001" from="105681660#12" to="260998164#0"/>
	<trip id="22" depart="4.000000000000001" from="422688973" to="-597602756#0"/>
	<trip id="23" depart="4.200000000000001" from="597602753#0" to="15374898#0-AddedOffRampEdge"/>
	<trip id="24" depart="4.400000000000001" from="918280985" to="-597602753#1"/>
	<trip id="25" depart="4.600000000000001" from="422685671#2" to="260998164#0"/>
	<trip id="26" depart="4.800000000000002" from="918280985" to="260998164#0"/>
	<trip id="27" depart="5.000000000000002" from="918280985" to="-105681660#20"/>
	<trip id="28" depart="5.200000000000002" from="918280985" to="260998164#0"/>
	<trip id="29" depart="5.400000000000002" from="422688973" to="260998164#0"/>
	<trip id="30" depart="5.600000000000002" from="918280985" to="15374898#0-AddedOffRampEdge"/>
	<trip id="31" depart="5.8000000000000025" from="422688973" to="-597602756#0"/>
	<trip id="32" depart="6.000000000000003" from="105681660#12" to="918280984"/>
	<trip id="33" depart="6.200000000000003" from="318908683#0" to="918280984"/>
	<trip id="34" depart="6.400000000000003" from="-260998164#3" to="15374898#0-AddedOffRampEdge"/>
	<trip id="35" depart="6.600000000000003" from="105681660#12" to="-318908683#1"/>
	<trip id="36" depart="6.800000000000003" from="918280985" to="-105681660#20"/>
	<trip id="37" depart="7.0000000000000036" from="918280985" to="15374898#0-AddedOffRampEdge"/>
	<trip id="38" depart="7.200000000000004" from="318908683#0" to="918280984"/>
	<trip id="39" depart="7.400000000000004" from="422685671#2" to="-105681660#20"/>
	<trip id="40" depart="7.600000000000004" from="597602753#0" to="-597602756#0"/>
	<trip id="41" depart="7.800000000000004" from="422685671#2" to="-597602753#1"/>
	<trip id="42" depart="8.000000000000004" from="597602756#0" to="15374898#0-AddedOffRampEdge"/>
	<trip id="43" depart="8.200000000000003" from="597602753#0" to="260998164#0"/>
	<trip id="44" depart="8.400000000000002" from="918280985" to="-105681660#20"/>
	<trip id="45" depart="8.600000000000001" from="597602753#0" to="918280984"/>
	<trip id="46" depart="8.8" from="422688973" to="-318908683#1"/>
	<trip id="47" depart="9.0" from="105681660#12" to="260998164#0"/>
	<trip id="48" depart="9.2" from="318908683#0" to="422688976#1"/>
	<trip id="49" depart="9.399999999999999" from="597602753#0" to="-318908683#1"/>
	<trip id="50" depart="9.599999999999998" from="-260998164#3" to="-597602756#0"/>
	<trip id="51" depart="9.799999999999997" from="422685671#2" to="-105681660#20"/>
	<trip id="52" depart="9.999999999999996" from="918280985" to="-597602756#0"/>
	<trip id="53" depart="10.199999999999996" from="422685671#2" to="918280984"/>
	<trip id="54" depart="10.399999999999995" from="597602756#0" to="918280984"/>
	<trip id="55" depart="10.599999999999994" from="422688973" to="-318908683#1"/>
	<trip id="56" depart="10.799999999999994" from="597602756#0" to="15374898#0-AddedOffRampEdge"/>
	<trip id="57" depart="10.999999999999993" from="318908683#0" to="-597602753#1"/>
	<trip id="58" depart="11.199999999999992" from="-260998164#3" to="-318908683#1"/>
	<trip id="59" depart="11.399999999999991" from="597602753#0" to="260998164#0"/>
	<trip id="60" depart="11.59999999999999" from="-260998164#3" to="-597602756#0"/>
	<trip id="61" depart="11.79999999999999" from="105681660#12" to="422688976#1"/>
	<trip id="62" depart="11.99999999999999" from="422688973" to="-597602753#1"/>
	<trip id="63" depart="12.199999999999989" from="318908683#0" to="918280984"/>
	<trip id="64" depart="12.399999999999988" from="318908683#0" to="-105681660#20"/>
	<trip id="65" depart="12.599999999999987" from="918280985" to="15374898#0-AddedOffRampEdge"/>
	<trip id="66" depart="12.799999999999986" from="597602756#0" to="-597602753#1"/>
	<trip id="67" depart="12.999999999999986" from="422688973" to="15374898#0-AddedOffRampEdge"/>
	<trip id="68" depart="13.199999999999985" from="597602753#0" to="260998164#0"/>
	<trip id="69" depart="13.399999999999984" from="597602756#0" to="260998164#0"/>
	<trip id="70" depart="13.599999999999984" from="-260998164#3" to="-597602753#1"/>
	<trip id="71" depart="13.799999999999983" from="318908683#0" to="-597602753#1"/>
	<trip id="72" depart="13.999999999999982" from="422685671#2" to="-105681660#20"/>
	<trip id="73" depart="14.199999999999982" from="597602753#0" to="-597602756#0"/>
	<trip id="74" depart="14.39999999999998" from="597602753#0" to="15374898#0-AddedOffRampEdge"/>
	<trip id="75" depart="14.59999999999998" from="422688973" to="-597602753#1"/>
	<trip id="76" depart="14.79999999999998" from="318908683#0" to="-597602756#0"/>
	<trip id="77" depart="14.999999999999979" from="422688973" to="-105681660#20"/>
	<trip id="78" depart="15.199999999999978" from="597602753#0" to="15374898#0-AddedOffRampEdge"/>
	<trip id="79" depart="15.399999999999977" from="-260998164#3" to="-597602756#0"/>
	<trip id="80" depart="15.599999999999977" from="422688973" to="-318908683#1"/>
	<trip id="81" depart="15.799999999999976" from="918280985" to="15374898#0-AddedOffRampEdge"/>
	<trip id="82" depart="15.999999999999975" from="597602756#0" to="260998164#0"/>
	<trip id="83" depart="16.199999999999974" from="597602756#0" to="-105681660#20"/>
	<trip id="84" depart="16.399999999999974" from="918280985" to="260998164#0"/>
	<trip id="85" depart="16.599999999999973" from="318908683#0" to="-597602756#0"/>
	<trip id="86" depart="16.799999999999972" from="-260998164#3" to="-597602753#1"/>
	<trip id="87" depart="16.99999999999997" from="597602753#0" to="-318908683#1"/>
	<trip id="88" depart="17.19999999999997" from="422685671#2" to="422688976#1"/>
	<trip id="89" depart="17.39999999999997" from="318908683#0" to="-597602756#0"/>
	<trip id="90" depart="17.59999999999997" from="597602753#0" to="918280984"/>
	<trip id="91" depart="17.79999999999997" from="105681660#12" to="422688976#1"/>
	<trip id="92" depart="17.999999999999968" from="105681660#12" to="918280984"/>
	<trip id="93" depart="18.199999999999967" from="597602753#0" to="-105681660#20"/>
	<trip id="94" depart="18.399999999999967" from="422685671#2" to="260998164#0"/>
	<trip id="95" depart="18.599999999999966" from="422685671#2" to="260998164#0"/>
	<trip id="96" depart="18.799999999999965" from="422688973" to="260998164#0"/>
	<trip id="97" depart="18.999999999999964" from="597602753#0" to="260998164#0"/>
	<trip id="98" depart="19.199999999999964" from="105681660#12" to="-597602756#0"/>
	<trip id="99" depart="19.399999999999963" from="422688973" to="-318908683#1"/>
	<trip id="100" depart="19.599999999999962" from="318908683#0" to="918280984"/>
	<trip id="101" depart="19.79999999999996" from="-260998164#3" to="-597602756#0"/>
	<trip id="102" depart="19.99999999999996" from="597602753#0" to="918280984"/>
	<trip id="103" depart="20.19999999999996" from="422688973" to="-318908683#1"/>
	<trip id="104" depart="20.39999999999996" from="105681660#12" to="15374898#0-AddedOffRampEdge"/>
	<trip id="105" depart="20.59999999999996" from="422688973" to="15374898#0-AddedOffRampEdge"/>
	<trip id="106" depart="20.799999999999958" from="422685671#2" to="-597602753#1"/>
	<trip id="107" depart="20.999999999999957" from="422685671#2" to="-105681660#20"/>
	<trip id="108" depart="21.199999999999957" from="422688973" to="-597602753#1"/>
	<trip id="109" depart="21.399999999999956" from="318908683#0" to="260998164#0"/>
	<trip id="110" depart="21.599999999999955" from="318908683#0" to="-105681660#20"/>
	<trip id="111" depart="21.799999999999955" from="422685671#2" to="918280984"/>
	<trip id="112" depart="21.999999999999954" from="597602756#0" to="422688976#1"/>
	<trip id="113" depart="22.199999999999953" from="597602756#0" to="918280984"/>
	<trip id="114" depart="22.399999999999952" from="597602756#0" to="422688976#1"/>
	<trip id="115" depart="22.59999999999995" from="597602756#0" to="-597602753#1"/>
	<trip id="116" depart="22.79999999999995" from="422685671#2" to="-597602756#0"/>
	<trip id="117" depart="22.99999999999995" from="597602756#0" to="260998164#0"/>
	<trip id="118" depart="23.19999999999995" from="422688973" to="-318908683#1"/>
	<trip id="119" depart="23.39999999999995" from="597602753#0" to="918280984"/>
	<trip id="120" depart="23.599999999999948" from="105681660#12" to="-318908683#1"/>
	<trip id="121" depart="23.799999999999947" from="-260998164#3" to="-105681660#20"/>
	<trip id="122" depart="23.999999999999947" from="918280985" to="260998164#0"/>
	<trip id="123" depart="24.199999999999946" from="105681660#12" to="260998164#0"/>
	<trip id="124" depart="24.399999999999945" from="918280985" to="-597602756#0"/>
	<trip id="125" depart="24.599999999999945" from="422688973" to="-105681660#20"/>
	<trip id="126" depart="24.799999999999944" from="597602753#0" to="260998164#0"/>
	<trip id="127" depart="24.999999999999943" from="918280985" to="-597602756#0"/>
	<trip id="128" depart="25.199999999999942" from="105681660#12" to="-318908683#1"/>
	<trip id="129" depart="25.39999999999994" from="597602756#0" to="15374898#0-AddedOffRampEdge"/>
	<trip id="130" depart="25.59999999999994" from="-260998164#3" to="-597602756#0"/>
	<trip id="131" depart="25.79999999999994" from="422688973" to="-597602753#1"/>
	<trip id="132" depart="25.99999999999994" from="918280985" to="-105681660#20"/>
	<trip id="133" depart="26.19999999999994" from="-260998164#3" to="422688976#1"/>
	<trip id="134" depart="26.399999999999938" from="597602756#0" to="918280984"/>
	<trip id="135" depart="26.599999999999937" from="422688973" to="260998164#0"/>
	<trip id="136" depart="26.799999999999937" from="105681660#12" to="15374898#0-AddedOffRampEdge"/>
	<trip id="137" depart="26.999999999999936" from="597602753#0" to="-318908683#1"/>
	<trip id="138" depart="27.199999999999935" from="597602753#0" to="-105681660#20"/>
	<trip id="139" depart="27.399999999999935" from="105681660#12" to="-318908683#1"/>
	<trip id="140" depart="27.599999999999934" from="422685671#2" to="-597602753#1"/>
	<trip id="141" depart="27.799999999999933" from="318908683#0" to="-597602753#1"/>
	<trip id="142" depart="27.999999999999932" from="318908683#0" to="918280984"/>
	<trip id="143" depart="28.199999999999932" from="597602756#0" to="-597602753#1"/>
	<trip id="144" depart="28.39999999999993" from="597602756#0" to="422688976#1"/>
	<trip id="145" depart="28.59999999999993" from="105681660#12" to="-318908683#1"/>
	<trip id="146" depart="28.79999999999993" from="597602753#0" to="-597602756#0"/>
	<trip id="147" depart="28.99999999999993" from="318908683#0" to="-105681660#20"/>
	<trip id="148" depart="29.19999999999993" from="-260998164#3" to="422688976#1"/>
	<trip id="149" depart="29.399999999999928" from="318908683#0" to="422688976#1"/>
	<trip id="150" depart="29.599999999999927" from="-260998164#3" to="15374898#0-AddedOffRampEdge"/>
	<trip id="151" depart="29.799999999999926" from="105681660#12" to="-597602756#0"/>
	<trip id="152" depart="29.999999999999925" from="597602753#0" to="260998164#0"/>
	<trip id="153" depart="30.199999999999925" from="105681660#12" to="-597602753#1"/>
	<trip id="154" depart="30.399999999999924" from="422688973" to="260998164#0"/>
	<trip id="155" depart="30.599999999999923" from="597602753#0" to="918280984"/>
	<trip id="156" depart="30.799999999999923" from="597602756#0" to="422688976#1"/>
	<trip id="157" depart="30.999999999999922" from="318908683#0" to="422688976#1"/>
	<trip id="158" depart="31.19999999999992" from="597602753#0" to="918280984"/>
	<trip id="159" depart="31.39999999999992" from="918280985" to="-105681660#20"/>
	<trip id="160" depart="31.59999999999992" from="105681660#12" to="15374898#0-AddedOffRampEdge"/>
	<trip id="161" depart="31.79999999999992" from="597602753#0" to="15374898#0-AddedOffRampEdge"/>
	<trip id="162" depart="31.99999999999992" from="318908683#0" to="-597602753#1"/>
	<trip id="163" depart="32.19999999999992" from="597602753#0" to="-105681660#20"/>
	<trip id="164" depart="32.39999999999992" from="-260998164#3" to="-318908683#1"/>
	<trip id="165" depart="32.59999999999992" from="105681660#12" to="422688976#1"/>
	<trip id="166" depart="32.799999999999926" from="597602756#0" to="918280984"/>
	<trip id="167" depart="32.99999999999993" from="422688973" to="260998164#0"/>
	<trip id="168" depart="33.19999999999993" from="105681660#12" to="-597602753#1"/>
	<trip id="169" depart="33.399999999999935" from="-260998164#3" to="-597602756#0"/>
	<trip id="170" depart="33.59999999999994" from="422688973" to="260998164#0"/>
	<trip id="171" depart="33.79999999999994" from="422688973" to="-318908683#1"/>
	<trip id="172" depart="33.99999999999994" from="-260998164#3" to="-597602756#0"/>
	<trip id="173" depart="34.199999999999946" from="318908683#0" to="422688976#1"/>
	<trip id="174" depart="34.39999999999995" from="-260998164#3" to="422688976#1"/>
	<trip id="175" depart="34.59999999999995" from="422685671#2" to="-597602756#0"/>
	<trip id="176" depart="34.799999999999955" from="318908683#0" to="260998164#0"/>
	<trip id="177" depart="34.99999999999996" from="-260998164#3" to="-597602753#1"/>
	<trip id="178" depart="35.19999999999996" from="918280985" to="-318908683#1"/>
	<trip id="179" depart="35.39999999999996" from="597602753#0" to="-597602756#0"/>
	<trip id="180" depart="35.599999999999966" from="-260998164#3" to="-105681660#20"/>
	<trip id="181" depart="35.79999999999997" from="597602753#0" to="-105681660#20"/>
	<trip id="182" depart="35.99999999999997" from="597602756#0" to="-318908683#1"/>
	<trip id="183" depart="36.199999999999974" from="422688973" to="-597602753#1"/>
	<trip id="184" depart="36.39999999999998" from="422688973" to="-105681660#20"/>
	<trip id="185" depart="36.59999999999998" from="918280985" to="15374898#0-AddedOffRampEdge"/>
	<trip id="186" depart="36.79999999999998" from="597602753#0" to="-597602756#0"/>
	<trip id="187" depart="36.999999999999986" from="318908683#0" to="-597602753#1"/>
	<trip id="188" depart="37.19999999999999" from="422685671#2" to="-105681660#20"/>
	<trip id="189" depart="37.39999999999999" from="422688973" to="15374898#0-AddedOffRampEdge"/>
	<trip id="190" depart="37.599999999999994" from="422688973" to="-597602753#1"/>
	<trip id="191" depart="37.8" from="422688973" to="-597602756#0"/>
	<trip id="192" depart="38.0" from="597602756#0" to="918280984"/>
	<trip id="193" depart="38.2" from="422685671#2" to="-597602753#1"/>
	<trip id="194" depart="38.400000000000006" from="918280985" to="260998164#0"/>
	<trip id="195" depart="38.60000000000001" from="318908683#0" to="-105681660#20"/>
	<trip id="196" depart="38.80000000000001" from="597602756#0" to="15374898#0-AddedOffRampEdge"/>
	<trip id="197" depart="39.000000000000014" from="597602753#0" to="260998164#0"/>
	<trip id="198" depart="39.20000000000002" from="422685671#2" to="422688976#1"/>
	<trip id="199" depart="39.40000000000002" from="-260998164#3" to="-105681660#20"/>
	<trip id="200" depart="39.60000000000002" from="-260998164#3" to="-318908683#1"/>
	<trip id="201" depart="39.800000000000026" from="105681660#12" to="918280984"/>
	<trip id="202" depart="40.00000000000003" from="422688973" to="-597602756#0"/>
	<trip id="203" depart="40.20000000000003" from="318908683#0" to="918280984"/>
	<trip id="204" depart="40.400000000000034" from="918280985" to="-318908683#1"/>
	<trip id="205" depart="40.60000000000004" from="318908683#0" to="918280984"/>
	<trip id="206" depart="40.80000000000004" from="318908683#0" to="260998164#0"/>
	<trip id="207" depart="41.00000000000004" from="318908683#0" to="-105681660#20"/>
	<trip id="208" depart="41.200000000000045" from="105681660#12" to="-318908683#1"/>
	<trip id="209" depart="41.40000000000005" from="-260998164#3" to="-318908683#1"/>
	<trip id="210" depart="41.60000000000005" from="597602756#0" to="918280984"/>
	<trip id="211" depart="41.800000000000054" from="422685671#2" to="-105681660#20"/>
	<trip id="212" depart="42.00000000000006" from="318908683#0" to="-105681660#20"/>
	<trip id="213" depart="42.20000000000006" from="597602756#0" to="-597602753#1"/>
	<trip id="214" depart="42.40000000000006" from="422688973" to="-597602753#1"/>
	<trip id="215" depart="42.600000000000065" from="422688973" to="-597602753#1"/>
	<trip id="216" depart="42.80000000000007" from="318908683#0" to="-597602753#1"/>
	<trip id="217" depart="43.00000000000007" from="105681660#12" to="918280984"/>
	<trip id="218" depart="43.200000000000074" from="318908683#0" to="-597602756#0"/>
	<trip id="219" depart="43.40000000000008" from="-260998164#3" to="-597602753#1"/>
	<trip id="220" depart="43.60000000000008" from="597602753#0" to="918280984"/>
	<trip id="221" depart="43.80000000000008" from="422685671#2" to="-105681660#20"/>
	<trip id="222" depart="44.000000000000085" from="422685671#2" to="422688976#1"/>
	<trip id="223" depart="44.20000000000009" from="105681660#12" to="260998164#0"/>
	<trip id="224" depart="44.40000000000009" from="422688973" to="260998164#0"/>
	<trip id="225" depart="44.600000000000094" from="105681660#12" to="-597602753#1"/>
	<trip id="226" depart="44.8000000000001" from="597602753#0" to="422688976#1"/>
	<trip id="227" depart="45.0000000000001" from="422685671#2" to="-597602756#0"/>
	<trip id="228" depart="45.2000000000001" from="597602753#0" to="422688976#1"/>
	<trip id="229" depart="45.400000000000105" from="422688973" to="15374898#0-AddedOffRampEdge"/>
	<trip id="230" depart="45.60000000000011" from="597602753#0" to="-105681660#20"/>
	<trip id="231" depart="45.80000000000011" from="318908683#0" to="-105681660#20"/>
	<trip id="232" depart="46.000000000000114" from="-260998164#3" to="-597602756#0"/>
	<trip id="233" depart="46.20000000000012" from="597602753#0" to="-597602756#0"/>
	<trip id="234" depart="46.40000000000012" from="918280985" to="-318908683#1"/>
	<trip id="235" depart="46.60000000000012" from="-260998164#3" to="-318908683#1"/>
	<trip id="236" depart="46.800000000000125" from="422685671#2" to="-597602753#1"/>
	<trip id="237" depart="47.00000000000013" from="918280985" to="260998164#0"/>
	<trip id="238" depart="47.20000000000013" from="-260998164#3" to="-105681660#20"/>
	<trip id="239" depart="47.400000000000134" from="105681660#12" to="918280984"/>
	<trip id="240" depart="47.600000000000136" from="597602756#0" to="260998164#0"/>
	<trip id="241" depart="47.80000000000014" from="597602756#0" to="15374898#0-AddedOffRampEdge"/>
	<trip id="242" depart="48.00000000000014" from="105681660#12" to="422688976#1"/>
	<trip id="243" depart="48.200000000000145" from="-260998164#3" to="-597602756#0"/>
	<trip id="244" depart="48.40000000000015" from="597602756#0" to="918280984"/>
	<trip id="245" depart="48.60000000000015" from="422688973" to="-597602756#0"/>
	<trip id="246" depart="48.80000000000015" from="105681660#12" to="15374898#0-AddedOffRampEdge"/>
	<trip id="247" depart="49.000000000000156" from="422688973" to="15374898#0-AddedOffRampEdge"/>
	<trip id="248" depart="49.20000000000016" from="597602753#0" to="422688976#1"/>
	<trip id="249" depart="49.40000000000016" from="105681660#12" to="15374898#0-AddedOffRampEdge"/>
	<trip id="250" depart="49.600000000000165" from="105681660#12" to="-318908683#1"/>
	<trip id="251" depart="49.80000000000017" from="318908683#0" to="260998164#0"/>
	<trip id="252" depart="50.00000000000017" from="918280985" to="15374898#0-AddedOffRampEdge"/>
	<trip id="253" depart="50.20000000000017" from="105681660#12" to="918280984"/>
	<trip id="254" depart="50.400000000000176" from="597602753#0" to="-105681660#20"/>
	<trip id="255" depart="50.60000000000018" from="422685671#2" to="260998164#0"/>
	<trip id="256" depart="50.80000000000018" from="105681660#12" to="-318908683#1"/>
	<trip id="257" depart="51.000000000000185" from="318908683#0" to="422688976#1"/>
	<trip id="258" depart="51.20000000000019" from="318908683#0" to="260998164#0"/>
	<trip id="259" depart="51.40000000000019" from="597602756#0" to="-597602753#1"/>
	<trip id="260" depart="51.60000000000019" from="422685671#2" to="422688976#1"/>
	<trip id="261" depart="51.800000000000196" from="597602753#0" to="422688976#1"/>
	<trip id="262" depart="52.0000000000002" from="105681660#12" to="15374898#0-AddedOffRampEdge"/>
	<trip id="263" depart="52.2000000000002" from="318908683#0" to="918280984"/>
	<trip id="264" depart="52.400000000000205" from="105681660#12" to="-597602756#0"/>
	<trip id="265" depart="52.60000000000021" from="318908683#0" to="260998164#0"/>
	<trip id="266" depart="52.80000000000021" from="-260998164#3" to="-318908683#1"/>
	<trip id="267" depart="53.00000000000021" from="318908683#0" to="-105681660#20"/>
	<trip id="268" depart="53.200000000000216" from="105681660#12" to="260998164#0"/>
	<trip id="269" depart="53.40000000000022" from="422688973" to="-318908683#1"/>
	<trip id="270" depart="53.60000000000022" from="597602756#0" to="15374898#0-AddedOffRampEdge"/>
	<trip id="271" depart="53.800000000000225" from="422685671#2" to="918280984"/>
	<trip id="272" depart="54.00000000000023" from="-260998164#3" to="-597602753#1"/>
	<trip id="273" depart="54.20000000000023" from="318908683#0" to="-105681660#20"/>
	<trip id="274" depart="54.40000000000023" from="597602756#0" to="15374898#0-AddedOffRampEdge"/>
	<trip id="275" depart="54.600000000000236" from="422685671#2" to="-105681660#20"/>
	<trip id="276" depart="54.80000000000024" from="-260998164#3" to="-105681660#20"/>
	<trip id="277" depart="55.00000000000024" from="318908683#0" to="918280984"/>
	<trip id="278" depart="55.200000000000244" from="422685671#2" to="-597602753#1"/>
	<trip id="279" depart="55.40000000000025" from="105681660#12" to="918280984"/>
	<trip id="280" depart="55.60000000000025" from="918280985" to="-318908683#1"/>
	<trip id="281" depart="55.80000000000025" from="318908683#0" to="422688976#1"/>
	<trip id="282" depart="56.000000000000256" from="105681660#12" to="-597602756#0"/>
	<trip id="283" depart="56.20000000000026" from="422688973" to="-597602756#0"/>
	<trip id="284" depart="56.40000000000026" from="318908683#0" to="-597602756#0"/>
	<trip id="285" depart="56.600000000000264" from="422685671#2" to="422688976#1"/>
	<trip id="286" depart="56.80000000000027" from="597602756#0" to="260998164#0"/>
	<trip id="287" depart="57.00000000000027" from="597602753#0" to="260998164#0"/>
	<trip id="288" depart="57.20000000000027" from="918280985" to="15374898#0-AddedOffRampEdge"/>
	<trip id="289" depart="57.400000000000276" from="918280985" to="-105681660#20"/>
	<trip id="290" depart="57.60000000000028" from="597602756#0" to="-597602753#1"/>
	<trip id="291" depart="57.80000000000028" from="422685671#2" to="260998164#0"/>
	<trip id="292" depart="58.000000000000284" from="-260998164#3" to="-597602753#1"/>
	<trip id="293" depart="58.20000000000029" from="-260998164#3" to="-597602753#1"/>
	<trip id="294" depart="58.40000000000029" from="105681660#12" to="-597602753#1"/>
	<trip id="295" depart="58.60000000000029" from="597602756#0" to="260998164#0"/>
	<trip id="296" depart="58.800000000000296" from="422685671#2" to="918280984"/>
	<trip id="297" depart="59.0000000000003" from="105681660#12" to="15374898#0-AddedOffRampEdge"/>
	<trip id="298" depart="59.2000000000003" from="422685671#2" to="-597602756#0"/>
	<trip id="299" depart="59.400000000000304" from="-260998164#3" to="422688976#1"/>
	<trip id="300" depart="59.60000000000031" from="-260998164#3" to="-318908683#1"/>
	<trip id="301" depart="59.80000000000031" from="422685671#2" to="-597602756#0"/>
	<trip id="302" depart="60.00000000000031" from="422688973" to="-597602756#0"/>
	<trip id="303" depart="60.200000000000315" from="918280985" to="-597602753#1"/>
	<trip id="304" depart="60.40000000000032" from="-260998164#3" to="-597602753#1"/>
	<trip id="305" depart="60.60000000000032" from="422688973" to="-597602756#0"/>
	<trip id="306" depart="60.800000000000324" from="422685671#2" to="-105681660#20"/>
	<trip id="307" depart="61.00000000000033" from="-260998164#3" to="-105681660#20"/>
	<trip id="308" depart="61.20000000000033" from="597602756#0" to="-105681660#20"/>
	<trip id="309" depart="61.40000000000033" from="318908683#0" to="-597602753#1"/>
	<trip id="310" depart="61.600000000000335" from="318908683#0" to="-597602753#1"/>
	<trip id="311" depart="61.80000000000034" from="918280985" to="260998164#0"/>
	<trip id="312" depart="62.00000000000034" from="318908683#0" to="918280984"/>
	<trip id="313" depart="62.200000000000344" from="105681660#12" to="-597602753#1"/>
	<trip id="314" depart="62.40000000000035" from="422685671#2" to="260998164#0"/>
	<trip id="315" depart="62.60000000000035" from="318908683#0" to="260998164#0"/>
	<trip id="316" depart="62.80000000000035" from="918280985" to="260998164#0"/>
	<trip id="317" depart="63.000000000000355" from="422688973" to="-318908683#1"/>
	<trip id="318" depart="63.20000000000036" from="318908683#0" to="-597602753#1"/>
	<trip id="319" depart="63.40000000000036" from="318908683#0" to="260998164#0"/>
	<trip id="320" depart="63.600000000000364" from="318908683#0" to="-597602753#1"/>
	<trip id="321" depart="63.80000000000037" from="318908683#0" to="918280984"/>
	<trip id="322" depart="64.00000000000037" from="422685671#2" to="-597602756#0"/>
	<trip id="323" depart="64.20000000000037" from="422688973" to="260998164#0"/>
	<trip id="324" depart="64.40000000000038" from="597602753#0" to="422688976#1"/>
	<trip id="325" depart="64.60000000000038" from="597602753#0" to="422688976#1"/>
	<trip id="326" depart="64.80000000000038" from="-260998164#3" to="15374898#0-AddedOffRampEdge"/>
	<trip id="327" depart="65.00000000000038" from="422688973" to="-105681660#20"/>
	<trip id="328" depart="65.20000000000039" from="422688973" to="-105681660#20"/>
	<trip id="329" depart="65.40000000000039" from="422685671#2" to="422688976#1"/>
	<trip id="330" depart="65.60000000000039" from="597602756#0" to="-597602753#1"/>
	<trip id="331" depart="65.8000000000004" from="105681660#12" to="15374898#0-AddedOffRampEdge"/>
	<trip id="332" depart="66.0000000000004" from="422688973" to="-597602753#1"/>
	<trip id="333" depart="66.2000000000004" from="422688973" to="-597602753#1"/>
	<trip id="334" depart="66.4000000000004" from="105681660#12" to="422688976#1"/>
	<trip id="335" depart="66.6000000000004" from="918280985" to="260998164#0"/>
	<trip id="336" depart="66.80000000000041" from="597602756#0" to="918280984"/>
	<trip id="337" depart="67.00000000000041" from="918280985" to="-597602756#0"/>
	<trip id="338" depart="67.20000000000041" from="597602753#0" to="918280984"/>
	<trip id="339" depart="67.40000000000042" from="-260998164#3" to="-105681660#20"/>
	<trip id="340" depart="67.60000000000042" from="422685671#2" to="-105681660#20"/>
	<trip id="341" depart="67.80000000000042" from="105681660#12" to="15374898#0-AddedOffRampEdge"/>
	<trip id="342" depart="68.00000000000043" from="597602756#0" to="260998164#0"/>
	<trip id="343" depart="68.20000000000043" from="318908683#0" to="-105681660#20"/>
	<trip id="344" depart="68.40000000000043" from="918280985" to="-318908683#1"/>
	<trip id="345" depart="68.60000000000043" from="597602753#0" to="-318908683#1"/>
	<trip id="346" depart="68.80000000000044" from="318908683#0" to="260998164#0"/>
	<trip id="347" depart="69.00000000000044" from="105681660#12" to="-318908683#1"/>
	<trip id="348" depart="69.20000000000044" from="-260998164#3" to="-597602753#1"/>
	<trip id="349" depart="69.40000000000045" from="318908683#0" to="260998164#0"/>
	<trip id="350" depart="69.60000000000045" from="918280985" to="260998164#0"/>
	<trip id="351" depart="69.80000000000045" from="105681660#12" to="15374898#0-AddedOffRampEdge"/>
	<trip id="352" depart="70.00000000000045" from="597602753#0" to="-597602756#0"/>
	<trip id="353" depart="70.20000000000046" from="318908683#0" to="260998164#0"/>
	<trip id="354" depart="70.40000000000046" from="-260998164#3" to="-318908683#1"/>
	<trip id="355" depart="70.60000000000046" from="422688973" to="-597602753#1"/>
	<trip id="356" depart="70.80000000000047" from="-260998164#3" to="-318908683#1"/>
	<trip id="357" depart="71.00000000000047" from="422688973" to="15374898#0-AddedOffRampEdge"/>
	<trip id="358" depart="71.20000000000047" from="597602753#0" to="-597602756#0"/>