<?xml version="1.0" encoding="UTF-8"?>

<!-- generated on 07/30/21 15:28:20 by Eclipse SUMO netedit Version 1.8.0
<configuration xmlns:xsi="http://www.w3.org/2001/XMLSchema-instance" xsi:noNamespaceSchemaLocation="http://sumo.dlr.de/xsd/netconvertConfiguration.xsd">

    <output>
        <output-file value="C:\Users\Local_Man\Desktop\Stolen%20Music\school%20stuff%20for%20college\RESEARCH\coding\SUMO\Selfless-Traffic-Routing-Testbed-master\configurations\baby_test2.net.xml"/>
    </output>

    <processing>
        <offset.disable-normalization value="true"/>
    </processing>

    <junctions>
        <no-turnarounds value="true"/>
    </junctions>

    <report>
        <aggregate-warnings value="5"/>
    </report>

</configuration>
-->

<net version="1.6" junctionCornerDetail="5" limitTurnSpeed="5.50" xmlns:xsi="http://www.w3.org/2001/XMLSchema-instance" xsi:noNamespaceSchemaLocation="http://sumo.dlr.de/xsd/net_file.xsd">

    <location netOffset="0.00,0.00" convBoundary="-34.70,-21.07,85.87,141.63" origBoundary="10000000000.00,10000000000.00,-10000000000.00,-10000000000.00" projParameter="!"/>

    <edge id=":gneJ13_0" function="internal">
        <lane id=":gneJ13_0_0" index="0" speed="7.51" length="12.33" shape="24.51,18.18 24.15,14.04 23.08,11.09 21.32,9.31 18.85,8.72"/>
    </edge>
    <edge id=":gneJ13_1" function="internal">
        <lane id=":gneJ13_1_0" index="0" speed="13.89" length="18.27" shape="24.51,18.18 24.42,-0.09"/>
    </edge>
    <edge id=":gneJ13_2" function="internal">
        <lane id=":gneJ13_2_0" index="0" speed="6.52" length="5.59" shape="24.51,18.18 25.05,14.15 26.09,13.03"/>
    </edge>
    <edge id=":gneJ13_9" function="internal">
        <lane id=":gneJ13_9_0" index="0" speed="6.52" length="8.47" shape="26.09,13.03 26.71,12.37 29.48,12.84 33.37,15.58"/>
    </edge>
    <edge id=":gneJ13_3" function="internal">
        <lane id=":gneJ13_3_0" index="0" speed="12.36" length="15.85" shape="27.62,-0.11 28.13,3.16 29.61,6.46 32.05,9.79 35.47,13.16"/>
    </edge>
    <edge id=":gneJ13_4" function="internal">
        <lane id=":gneJ13_4_0" index="0" speed="13.89" length="18.28" shape="27.62,-0.11 27.71,18.17"/>
    </edge>
    <edge id=":gneJ13_5" function="internal">
        <lane id=":gneJ13_5_0" index="0" speed="7.99" length="5.95" shape="27.62,-0.11 27.10,3.75 26.05,5.51"/>
    </edge>
    <edge id=":gneJ13_10" function="internal">
        <lane id=":gneJ13_10_0" index="0" speed="7.99" length="8.27" shape="26.05,5.51 25.46,6.51 22.71,8.17 18.85,8.72"/>
    </edge>
    <edge id=":gneJ13_6" function="internal">
        <lane id=":gneJ13_6_0" index="0" speed="6.49" length="9.03" shape="18.85,5.52 21.30,5.17 23.05,4.12 24.09,2.37 24.42,-0.09"/>
    </edge>
    <edge id=":gneJ13_7" function="internal">
        <lane id=":gneJ13_7_0" index="0" speed="13.89" length="18.02" shape="18.85,5.52 22.29,6.28 25.48,8.38 28.99,11.56 33.37,15.58"/>
    </edge>
    <edge id=":gneJ13_8" function="internal">
        <lane id=":gneJ13_8_0" index="0" speed="8.82" length="17.43" shape="18.85,5.52 22.71,6.31 25.47,8.68 27.14,12.64 27.71,18.17"/>
    </edge>
    <edge id=":gneJ17_0" function="internal">
        <lane id=":gneJ17_0_0" index="0" speed="6.07" length="8.04" shape="-36.12,10.61 -35.92,8.40 -35.06,6.82 -33.53,5.87 -31.33,5.56"/>
    </edge>
    <edge id=":gneJ17_1" function="internal">
        <lane id=":gneJ17_1_0" index="0" speed="3.90" length="2.68" shape="-31.33,8.76 -32.06,8.86 -32.57,9.18 -32.86,9.71 -32.92,10.44"/>
    </edge>
    <edge id=":gneJ18_0" function="internal">
        <lane id=":gneJ18_0_0" index="0" speed="13.89" length="14.16" shape="-34.31,51.54 -34.70,37.39"/>
    </edge>
    <edge id=":gneJ18_1" function="internal">
        <lane id=":gneJ18_1_0" index="0" speed="7.99" length="5.67" shape="-34.31,51.54 -33.77,47.68 -32.86,46.16"/>
    </edge>
    <edge id=":gneJ18_6" function="internal">
        <lane id=":gneJ18_6_0" index="0" speed="7.99" length="8.54" shape="-32.86,46.16 -32.12,44.93 -29.37,43.28 -25.51,42.74"/>
    </edge>
    <edge id=":gneJ18_2" function="internal">
        <lane id=":gneJ18_2_0" index="0" speed="6.50" length="9.03" shape="-25.52,45.94 -27.97,46.28 -29.72,47.33 -30.77,49.08 -31.11,51.53"/>
    </edge>
    <edge id=":gneJ18_3" function="internal">
        <lane id=":gneJ18_3_0" index="0" speed="8.15" length="14.14" shape="-25.52,45.94 -29.36,45.40 -32.18,43.79 -33.96,41.12 -34.70,37.39"/>
    </edge>
    <edge id=":gneJ18_4" function="internal">
        <lane id=":gneJ18_4_0" index="0" speed="6.69" length="9.18" shape="-31.50,37.22 -31.02,39.63 -29.86,41.35 -28.02,42.39 -25.51,42.74"/>
    </edge>
    <edge id=":gneJ18_5" function="internal">
        <lane id=":gneJ18_5_0" index="0" speed="13.89" length="14.32" shape="-31.50,37.22 -31.11,51.53"/>
    </edge>
    <edge id=":gneJ19_0" function="internal">
        <lane id=":gneJ19_0_0" index="0" speed="6.55" length="9.08" shape="24.70,51.66 24.32,49.21 23.24,47.47 21.47,46.42 19.00,46.06"/>
    </edge>
    <edge id=":gneJ19_1" function="internal">
        <lane id=":gneJ19_1_0" index="0" speed="13.89" length="14.39" shape="24.70,51.66 24.59,37.27"/>
    </edge>
    <edge id=":gneJ19_2" function="internal">
        <lane id=":gneJ19_2_0" index="0" speed="13.89" length="14.37" shape="27.79,37.25 27.90,51.62"/>
    </edge>
    <edge id=":gneJ19_3" function="internal">
        <lane id=":gneJ19_3_0" index="0" speed="7.99" length="5.89" shape="27.79,37.25 27.26,41.12 26.23,42.83"/>
    </edge>
    <edge id=":gneJ19_6" function="internal">
        <lane id=":gneJ19_6_0" index="0" speed="7.99" length="8.32" shape="26.23,42.83 25.61,43.87 22.86,45.52 19.00,46.06"/>
    </edge>
    <edge id=":gneJ19_4" function="internal">
        <lane id=":gneJ19_4_0" index="0" speed="6.49" length="9.03" shape="19.00,42.86 21.46,42.52 23.21,41.47 24.25,39.72 24.59,37.27"/>
    </edge>
    <edge id=":gneJ19_5" function="internal">
        <lane id=":gneJ19_5_0" index="0" speed="8.04" length="14.19" shape="19.00,42.86 22.86,43.42 25.63,45.06 27.31,47.80 27.90,51.62"/>
    </edge>
    <edge id=":gneJ20_0" function="internal">
        <lane id=":gneJ20_0_0" index="0" speed="6.51" length="8.95" shape="25.35,95.34 24.92,92.93 23.82,91.23 22.05,90.23 19.62,89.94"/>
    </edge>
    <edge id=":gneJ20_1" function="internal">
        <lane id=":gneJ20_1_0" index="0" speed="13.89" length="14.26" shape="25.35,95.34 25.01,81.09"/>
    </edge>
    <edge id=":gneJ20_2" function="internal">
        <lane id=":gneJ20_2_0" index="0" speed="13.89" length="14.18" shape="28.21,81.05 28.55,95.22"/>
    </edge>
    <edge id=":gneJ20_3" function="internal">
        <lane id=":gneJ20_3_0" index="0" speed="8.00" length="5.77" shape="28.21,81.05 27.71,84.87 26.74,86.53"/>
    </edge>
    <edge id=":gneJ20_6" function="internal">
        <lane id=":gneJ20_6_0" index="0" speed="8.00" length="8.29" shape="26.74,86.53 26.11,87.62 23.41,89.31 19.62,89.94"/>
    </edge>
    <edge id=":gneJ20_4" function="internal">
        <lane id=":gneJ20_4_0" index="0" speed="6.51" length="8.95" shape="19.54,86.74 21.96,86.34 23.68,85.27 24.69,83.51 25.01,81.09"/>
    </edge>
    <edge id=":gneJ20_5" function="internal">
        <lane id=":gneJ20_5_0" index="0" speed="8.01" length="14.06" shape="19.54,86.74 23.36,87.20 26.14,88.76 27.87,91.44 28.55,95.22"/>
    </edge>
    <edge id=":gneJ21_0" function="internal">
        <lane id=":gneJ21_0_0" index="0" speed="6.07" length="7.86" shape="-29.31,91.07 -31.45,90.82 -32.98,89.93 -33.91,88.42 -34.22,86.29"/>
    </edge>
    <edge id=":gneJ21_1" function="internal">
        <lane id=":gneJ21_1_0" index="0" speed="3.90" length="2.62" shape="-31.02,86.28 -30.91,86.99 -30.61,87.50 -30.10,87.79 -29.38,87.87"/>
    </edge>
    <edge id=":gneJ24_0" function="internal">
        <lane id=":gneJ24_0_0" index="0" speed="11.44" length="10.87" shape="35.43,116.44 33.03,118.70 31.17,120.30 29.96,122.11 29.52,125.02"/>
    </edge>
    <edge id=":gneJ24_1" function="internal">
        <lane id=":gneJ24_1_0" index="0" speed="5.89" length="6.57" shape="33.07,114.28 30.10,116.96 27.93,117.63 27.72,117.43"/>
    </edge>
    <edge id=":gneJ24_4" function="internal">
        <lane id=":gneJ24_4_0" index="0" speed="5.89" length="5.00" shape="27.72,117.43 26.56,116.30 26.00,112.97"/>
    </edge>
    <edge id=":gneJ24_2" function="internal">
        <lane id=":gneJ24_2_0" index="0" speed="13.89" length="12.18" shape="29.20,112.85 29.52,125.02"/>
    </edge>
    <edge id=":gneJ24_3" function="internal">
        <lane id=":gneJ24_3_0" index="0" speed="13.89" length="12.04" shape="26.32,125.00 26.00,112.97"/>
    </edge>
    <edge id=":gneJ26_0" function="internal">
        <lane id=":gneJ26_0_0" index="0" speed="6.07" length="7.89" shape="84.44,55.70 85.86,57.34 86.40,59.03 86.05,60.77 84.83,62.56"/>
    </edge>
    <edge id=":gneJ26_1" function="internal">
        <lane id=":gneJ26_1_0" index="0" speed="3.90" length="2.63" shape="82.34,58.11 82.81,58.66 82.99,59.22 82.88,59.80 82.47,60.40"/>
    </edge>

    <edge id="gneE14" from="gneJ12" to="gneJ13" priority="-1">
        <lane id="gneE14_0" index="0" speed="13.89" length="20.97" shape="27.49,-21.08 27.62,-0.11"/>
    </edge>
    <edge id="gneE15" from="gneJ13" to="gneJ12" priority="-1">
        <lane id="gneE15_0" index="0" speed="13.89" length="20.97" shape="24.42,-0.09 24.29,-21.06"/>
    </edge>
    <edge id="gneE18" from="gneJ13" to="gneJ17" priority="-1">
        <lane id="gneE18_0" index="0" speed="13.89" length="50.18" shape="18.85,8.72 -31.33,8.76"/>
    </edge>
    <edge id="gneE19" from="gneJ17" to="gneJ13" priority="-1">
        <lane id="gneE19_0" index="0" speed="13.89" length="50.18" shape="-31.33,5.56 18.85,5.52"/>
    </edge>
    <edge id="gneE20" from="gneJ17" to="gneJ18" priority="-1">
        <lane id="gneE20_0" index="0" speed="13.89" length="26.81" shape="-32.92,10.44 -31.50,37.22"/>
    </edge>
    <edge id="gneE21" from="gneJ18" to="gneJ19" priority="-1">
        <lane id="gneE21_0" index="0" speed="13.89" length="44.51" shape="-25.51,42.74 19.00,42.86"/>
    </edge>
    <edge id="gneE22" from="gneJ19" to="gneJ13" priority="-1">
        <lane id="gneE22_0" index="0" speed="13.89" length="19.08" shape="24.59,37.27 24.51,18.18"/>
    </edge>
    <edge id="gneE23" from="gneJ18" to="gneJ17" priority="-1">
        <lane id="gneE23_0" index="0" speed="13.89" length="26.81" shape="-34.70,37.39 -36.12,10.61"/>
    </edge>
    <edge id="gneE24" from="gneJ19" to="gneJ18" priority="-1">
        <lane id="gneE24_0" index="0" speed="13.89" length="44.51" shape="19.00,46.06 -25.52,45.94"/>
    </edge>
    <edge id="gneE25" from="gneJ13" to="gneJ19" priority="-1">
        <lane id="gneE25_0" index="0" speed="13.89" length="19.08" shape="27.71,18.17 27.79,37.25"/>
    </edge>
    <edge id="gneE26" from="gneJ19" to="gneJ20" priority="-1">
        <lane id="gneE26_0" index="0" speed="13.89" length="29.43" shape="27.90,51.62 28.21,81.05"/>
    </edge>
    <edge id="gneE27" from="gneJ18" to="gneJ21" priority="-1">
        <lane id="gneE27_0" index="0" speed="13.89" length="34.75" shape="-31.11,51.53 -31.02,86.28"/>
    </edge>
    <edge id="gneE28" from="gneJ21" to="gneJ20" priority="-1">
        <lane id="gneE28_0" index="0" speed="13.89" length="48.94" shape="-29.38,87.87 19.54,86.74"/>
    </edge>
    <edge id="gneE29" from="gneJ21" to="gneJ18" priority="-1">
        <lane id="gneE29_0" index="0" speed="13.89" length="34.75" shape="-34.22,86.29 -34.31,51.54"/>
    </edge>
    <edge id="gneE30" from="gneJ20" to="gneJ19" priority="-1">
        <lane id="gneE30_0" index="0" speed="13.89" length="29.43" shape="25.01,81.09 24.70,51.66"/>
    </edge>
    <edge id="gneE33" from="gneJ20" to="gneJ24" priority="-1">
        <lane id="gneE33_0" index="0" speed="13.89" length="17.64" shape="28.55,95.22 29.20,112.85"/>
    </edge>
    <edge id="gneE34" from="gneJ24" to="gneJ20" priority="-1">
        <lane id="gneE34_0" index="0" speed="13.89" length="17.64" shape="26.00,112.97 25.35,95.34"/>
    </edge>
    <edge id="gneE36" from="gneJ20" to="gneJ21" priority="-1">
        <lane id="gneE36_0" index="0" speed="13.89" length="48.94" shape="19.62,89.94 -29.31,91.07"/>
    </edge>
    <edge id="gneE37" from="gneJ13" to="gneJ26" priority="-1" spreadType="center">
        <lane id="gneE37_0" index="0" speed="13.89" length="64.86" shape="35.47,13.16 84.44,55.70"/>
        <lane id="gneE37_1" index="1" speed="13.89" length="64.86" shape="33.37,15.58 82.34,58.11"/>
    </edge>
    <edge id="gneE38" from="gneJ26" to="gneJ24" priority="-1" spreadType="center">
        <lane id="gneE38_0" index="0" speed="13.89" length="73.09" shape="84.83,62.56 35.43,116.44"/>
        <lane id="gneE38_1" index="1" speed="13.89" length="73.09" shape="82.47,60.40 33.07,114.28"/>
    </edge>
    <edge id="gneE39" from="gneJ24" to="gneJ27" priority="-1">
        <lane id="gneE39_0" index="0" speed="13.89" length="16.62" shape="29.52,125.02 29.40,141.64"/>
    </edge>
    <edge id="gneE40" from="gneJ27" to="gneJ24" priority="-1">
        <lane id="gneE40_0" index="0" speed="13.89" length="16.62" shape="26.20,141.62 26.32,125.00"/>
    </edge>

    <tlLogic id="gneJ13" type="static" programID="0" offset="0">
        <phase duration="42" state="GGgGGgrrr"/>
        <phase duration="3"  state="yyyyyyrrr"/>
        <phase duration="42" state="GrrrrrGGG"/>
        <phase duration="3"  state="yrrrrryyy"/>
    </tlLogic>
    <tlLogic id="gneJ17" type="static" programID="0" offset="0">
        <phase duration="42" state="GG"/>
        <phase duration="3"  state="yy"/>
        <phase duration="42" state="GG"/>
        <phase duration="3"  state="yy"/>
    </tlLogic>
    <tlLogic id="gneJ18" type="static" programID="0" offset="0">
        <phase duration="42" state="GgrrGG"/>
        <phase duration="3"  state="yyrryy"/>
        <phase duration="42" state="rrGGGr"/>
        <phase duration="3"  state="rryyyr"/>
    </tlLogic>
    <tlLogic id="gneJ19" type="static" programID="0" offset="0">
        <phase duration="42" state="GGGgrr"/>
        <phase duration="3"  state="yyyyrr"/>
        <phase duration="42" state="GrrrGG"/>
        <phase duration="3"  state="yrrryy"/>
    </tlLogic>
    <tlLogic id="gneJ20" type="static" programID="0" offset="0">
        <phase duration="42" state="GGGgrr"/>
        <phase duration="3"  state="yyyyrr"/>
        <phase duration="42" state="GrrrGG"/>
        <phase duration="3"  state="yrrryy"/>
    </tlLogic>
    <tlLogic id="gneJ21" type="static" programID="0" offset="0">
        <phase duration="42" state="GG"/>
        <phase duration="3"  state="yy"/>
        <phase duration="42" state="GG"/>
        <phase duration="3"  state="yy"/>
    </tlLogic>

    <junction id="gneJ12" type="dead_end" x="25.89" y="-21.07" incLanes="gneE15_0" intLanes="" shape="25.89,-21.07 22.69,-21.05 25.89,-21.07"/>
    <junction id="gneJ13" type="traffic_light" x="26.07" y="7.12" incLanes="gneE22_0 gneE14_0 gneE19_0" intLanes=":gneJ13_0_0 :gneJ13_1_0 :gneJ13_9_0 :gneJ13_3_0 :gneJ13_4_0 :gneJ13_10_0 :gneJ13_6_0 :gneJ13_7_0 :gneJ13_8_0" shape="22.91,18.19 29.31,18.16 29.64,16.23 30.06,15.82 30.64,15.77 31.40,16.10 32.32,16.79 36.52,11.95 34.30,9.87 32.48,7.81 31.07,5.79 30.05,3.79 29.44,1.82 29.22,-0.12 22.82,-0.08 22.39,2.14 21.84,2.92 21.07,3.48 20.07,3.81 18.85,3.92 18.85,10.32 21.10,11.20 21.88,12.29 22.45,13.82 22.79,15.79">
        <request index="0" response="000000000" foes="000100000" cont="0"/>
        <request index="1" response="000000000" foes="111100000" cont="0"/>
        <request index="2" response="000010000" foes="110010000" cont="1"/>
        <request index="3" response="000000000" foes="000000000" cont="0"/>
        <request index="4" response="000000000" foes="110000100" cont="0"/>
        <request index="5" response="000000011" foes="110000011" cont="1"/>
        <request index="6" response="000000010" foes="000000010" cont="0"/>
        <request index="7" response="000110110" foes="000110110" cont="0"/>
        <request index="8" response="000110110" foes="000110110" cont="0"/>
    </junction>
    <junction id="gneJ17" type="traffic_light" x="-34.70" y="7.16" incLanes="gneE23_0 gneE18_0" intLanes=":gneJ17_0_0 :gneJ17_1_0" shape="-37.72,10.70 -31.33,10.36 -31.33,3.96 -33.38,4.15 -35.04,4.71 -36.30,5.64 -37.17,6.95 -37.64,8.64">
        <request index="0" response="00" foes="00" cont="0"/>
        <request index="1" response="00" foes="00" cont="0"/>
    </junction>
    <junction id="gneJ18" type="traffic_light" x="-32.73" y="44.32" incLanes="gneE29_0 gneE24_0 gneE20_0" intLanes=":gneJ18_0_0 :gneJ18_6_0 :gneJ18_2_0 :gneJ18_3_0 :gneJ18_4_0 :gneJ18_5_0" shape="-35.91,51.55 -29.51,51.53 -29.07,49.31 -28.52,48.53 -27.74,47.98 -26.74,47.65 -25.52,47.54 -25.50,41.14 -27.86,40.69 -28.70,40.13 -29.32,39.35 -29.73,38.35 -29.91,37.13 -36.30,37.47">
        <request index="0" response="000000" foes="001000" cont="0"/>
        <request index="1" response="110000" foes="111000" cont="1"/>
        <request index="2" response="100000" foes="100000" cont="0"/>
        <request index="3" response="100011" foes="100011" cont="0"/>
        <request index="4" response="000000" foes="000010" cont="0"/>
        <request index="5" response="000000" foes="001110" cont="0"/>
    </junction>
    <junction id="gneJ19" type="traffic_light" x="26.22" y="44.48" incLanes="gneE30_0 gneE25_0 gneE21_0" intLanes=":gneJ19_0_0 :gneJ19_1_0 :gneJ19_2_0 :gneJ19_6_0 :gneJ19_4_0 :gneJ19_5_0" shape="23.10,51.67 29.50,51.60 29.39,37.25 22.99,37.27 22.56,39.49 22.00,40.27 21.23,40.82 20.23,41.15 19.01,41.26 18.99,47.66 21.25,48.11 22.05,48.67 22.62,49.45 22.97,50.45">
        <request index="0" response="000000" foes="001000" cont="0"/>
        <request index="1" response="000000" foes="111000" cont="0"/>
        <request index="2" response="000000" foes="100000" cont="0"/>
        <request index="3" response="000011" foes="100011" cont="1"/>
        <request index="4" response="000010" foes="000010" cont="0"/>
        <request index="5" response="001110" foes="001110" cont="0"/>
    </junction>
    <junction id="gneJ20" type="traffic_light" x="26.69" y="88.18" incLanes="gneE34_0 gneE26_0 gneE28_0" intLanes=":gneJ20_0_0 :gneJ20_1_0 :gneJ20_2_0 :gneJ20_6_0 :gneJ20_4_0 :gneJ20_5_0" shape="23.75,95.40 30.15,95.17 29.81,81.03 23.41,81.10 23.00,83.31 22.46,84.09 21.70,84.66 20.71,85.01 19.51,85.15 19.65,91.54 21.87,91.93 22.66,92.46 23.23,93.22 23.60,94.20">
        <request index="0" response="000000" foes="001000" cont="0"/>
        <request index="1" response="000000" foes="111000" cont="0"/>
        <request index="2" response="000000" foes="100000" cont="0"/>
        <request index="3" response="000011" foes="100011" cont="1"/>
        <request index="4" response="000010" foes="000010" cont="0"/>
        <request index="5" response="001110" foes="001110" cont="0"/>
    </junction>
    <junction id="gneJ21" type="traffic_light" x="-32.61" y="89.55" incLanes="gneE36_0 gneE27_0" intLanes=":gneJ21_0_0 :gneJ21_1_0" shape="-29.27,92.67 -29.42,86.28 -35.82,86.29 -35.63,88.28 -35.08,89.90 -34.17,91.15 -32.90,92.03 -31.27,92.54">
        <request index="0" response="00" foes="00" cont="0"/>
        <request index="1" response="00" foes="00" cont="0"/>
    </junction>
    <junction id="gneJ24" type="traffic_light" x="27.94" y="122.24" incLanes="gneE38_0 gneE38_1 gneE33_0 gneE40_0" intLanes=":gneJ24_0_0 :gneJ24_4_0 :gneJ24_2_0 :gneJ24_3_0" shape="36.61,117.52 31.89,113.19 31.31,113.65 31.10,113.66 30.94,113.52 30.84,113.23 30.80,112.79 24.40,113.03 24.72,124.99 31.12,125.03 31.86,121.78 32.70,120.82 33.80,119.96 35.11,118.94">
        <request index="0" response="0000" foes="0100" cont="0"/>
        <request index="1" response="1000" foes="1100" cont="1"/>
        <request index="2" response="0011" foes="0011" cont="0"/>
        <request index="3" response="0000" foes="0010" cont="0"/>
    </junction>
    <junction id="gneJ26" type="priority" x="85.87" y="59.06" incLanes="gneE37_0 gneE37_1" intLanes=":gneJ26_0_0 :gneJ26_1_0" shape="85.49,54.49 81.29,59.32 86.01,63.65 87.23,62.05 87.92,60.47 88.10,58.93 87.75,57.42 86.88,55.94">
        <request index="0" response="00" foes="00" cont="0"/>
        <request index="1" response="00" foes="00" cont="0"/>
    </junction>
    <junction id="gneJ27" type="dead_end" x="27.80" y="141.63" incLanes="gneE39_0" intLanes="" shape="27.80,141.63 31.00,141.65 27.80,141.63"/>

    <junction id=":gneJ13_9_0" type="internal" x="26.09" y="13.03" incLanes=":gneJ13_2_0 gneE14_0" intLanes=":gneJ13_3_0 :gneJ13_4_0 :gneJ13_7_0 :gneJ13_8_0"/>
    <junction id=":gneJ13_10_0" type="internal" x="26.05" y="5.51" incLanes=":gneJ13_5_0 gneE22_0" intLanes=":gneJ13_0_0 :gneJ13_1_0 :gneJ13_7_0 :gneJ13_8_0"/>
    <junction id=":gneJ18_6_0" type="internal" x="-32.86" y="46.16" incLanes=":gneJ18_1_0 gneE20_0" intLanes=":gneJ18_3_0 :gneJ18_4_0 :gneJ18_5_0"/>
    <junction id=":gneJ19_6_0" type="internal" x="26.23" y="42.83" incLanes=":gneJ19_3_0 gneE30_0" intLanes=":gneJ19_0_0 :gneJ19_1_0 :gneJ19_5_0"/>
    <junction id=":gneJ20_6_0" type="internal" x="26.74" y="86.53" incLanes=":gneJ20_3_0 gneE34_0" intLanes=":gneJ20_0_0 :gneJ20_1_0 :gneJ20_5_0"/>
    <junction id=":gneJ24_4_0" type="internal" x="27.72" y="117.43" incLanes=":gneJ24_1_0 gneE40_0" intLanes=":gneJ24_2_0 :gneJ24_3_0"/>

    <connection from="gneE14" to="gneE37" fromLane="0" toLane="0" via=":gneJ13_3_0" tl="gneJ13" linkIndex="3" dir="r" state="O"/>
    <connection from="gneE14" to="gneE25" fromLane="0" toLane="0" via=":gneJ13_4_0" tl="gneJ13" linkIndex="4" dir="s" state="O"/>
    <connection from="gneE14" to="gneE18" fromLane="0" toLane="0" via=":gneJ13_5_0" tl="gneJ13" linkIndex="5" dir="l" state="o"/>
    <connection from="gneE18" to="gneE20" fromLane="0" toLane="0" via=":gneJ17_1_0" tl="gneJ17" linkIndex="1" dir="r" state="O"/>
    <connection from="gneE19" to="gneE15" fromLane="0" toLane="0" via=":gneJ13_6_0" tl="gneJ13" linkIndex="6" dir="r" state="o"/>
    <connection from="gneE19" to="gneE37" fromLane="0" toLane="1" via=":gneJ13_7_0" tl="gneJ13" linkIndex="7" dir="s" state="o"/>
    <connection from="gneE19" to="gneE25" fromLane="0" toLane="0" via=":gneJ13_8_0" tl="gneJ13" linkIndex="8" dir="l" state="o"/>
    <connection from="gneE20" to="gneE21" fromLane="0" toLane="0" via=":gneJ18_4_0" tl="gneJ18" linkIndex="4" dir="r" state="O"/>
    <connection from="gneE20" to="gneE27" fromLane="0" toLane="0" via=":gneJ18_5_0" tl="gneJ18" linkIndex="5" dir="s" state="O"/>
    <connection from="gneE21" to="gneE22" fromLane="0" toLane="0" via=":gneJ19_4_0" tl="gneJ19" linkIndex="4" dir="r" state="o"/>
    <connection from="gneE21" to="gneE26" fromLane="0" toLane="0" via=":gneJ19_5_0" tl="gneJ19" linkIndex="5" dir="l" state="o"/>
    <connection from="gneE22" to="gneE18" fromLane="0" toLane="0" via=":gneJ13_0_0" tl="gneJ13" linkIndex="0" dir="r" state="O"/>
    <connection from="gneE22" to="gneE15" fromLane="0" toLane="0" via=":gneJ13_1_0" tl="gneJ13" linkIndex="1" dir="s" state="O"/>
    <connection from="gneE22" to="gneE37" fromLane="0" toLane="1" via=":gneJ13_2_0" tl="gneJ13" linkIndex="2" dir="l" state="o"/>
    <connection from="gneE23" to="gneE19" fromLane="0" toLane="0" via=":gneJ17_0_0" tl="gneJ17" linkIndex="0" dir="l" state="O"/>
    <connection from="gneE24" to="gneE27" fromLane="0" toLane="0" via=":gneJ18_2_0" tl="gneJ18" linkIndex="2" dir="r" state="o"/>
    <connection from="gneE24" to="gneE23" fromLane="0" toLane="0" via=":gneJ18_3_0" tl="gneJ18" linkIndex="3" dir="l" state="o"/>
    <connection from="gneE25" to="gneE26" fromLane="0" toLane="0" via=":gneJ19_2_0" tl="gneJ19" linkIndex="2" dir="s" state="O"/>
    <connection from="gneE25" to="gneE24" fromLane="0" toLane="0" via=":gneJ19_3_0" tl="gneJ19" linkIndex="3" dir="l" state="o"/>
    <connection from="gneE26" to="gneE33" fromLane="0" toLane="0" via=":gneJ20_2_0" tl="gneJ20" linkIndex="2" dir="s" state="O"/>
    <connection from="gneE26" to="gneE36" fromLane="0" toLane="0" via=":gneJ20_3_0" tl="gneJ20" linkIndex="3" dir="l" state="o"/>
    <connection from="gneE27" to="gneE28" fromLane="0" toLane="0" via=":gneJ21_1_0" tl="gneJ21" linkIndex="1" dir="r" state="O"/>
    <connection from="gneE28" to="gneE30" fromLane="0" toLane="0" via=":gneJ20_4_0" tl="gneJ20" linkIndex="4" dir="r" state="o"/>
    <connection from="gneE28" to="gneE33" fromLane="0" toLane="0" via=":gneJ20_5_0" tl="gneJ20" linkIndex="5" dir="l" state="o"/>
    <connection from="gneE29" to="gneE23" fromLane="0" toLane="0" via=":gneJ18_0_0" tl="gneJ18" linkIndex="0" dir="s" state="O"/>
    <connection from="gneE29" to="gneE21" fromLane="0" toLane="0" via=":gneJ18_1_0" tl="gneJ18" linkIndex="1" dir="l" state="o"/>
    <connection from="gneE30" to="gneE24" fromLane="0" toLane="0" via=":gneJ19_0_0" tl="gneJ19" linkIndex="0" dir="r" state="O"/>
    <connection from="gneE30" to="gneE22" fromLane="0" toLane="0" via=":gneJ19_1_0" tl="gneJ19" linkIndex="1" dir="s" state="O"/>
    <connection from="gneE33" to="gneE39" fromLane="0" toLane="0" via=":gneJ24_2_0" dir="s" state="m"/>
    <connection from="gneE34" to="gneE36" fromLane="0" toLane="0" via=":gneJ20_0_0" tl="gneJ20" linkIndex="0" dir="r" state="O"/>
    <connection from="gneE34" to="gneE30" fromLane="0" toLane="0" via=":gneJ20_1_0" tl="gneJ20" linkIndex="1" dir="s" state="O"/>
    <connection from="gneE36" to="gneE29" fromLane="0" toLane="0" via=":gneJ21_0_0" tl="gneJ21" linkIndex="0" dir="l" state="O"/>
    <connection from="gneE37" to="gneE38" fromLane="0" toLane="0" via=":gneJ26_0_0" dir="l" state="M"/>
    <connection from="gneE37" to="gneE38" fromLane="1" toLane="1" via=":gneJ26_1_0" dir="l" state="M"/>
    <connection from="gneE38" to="gneE39" fromLane="0" toLane="0" via=":gneJ24_0_0" dir="s" state="M"/>
    <connection from="gneE38" to="gneE34" fromLane="1" toLane="0" via=":gneJ24_1_0" dir="l" state="m"/>
    <connection from="gneE40" to="gneE34" fromLane="0" toLane="0" via=":gneJ24_3_0" dir="s" state="M"/>

    <connection from=":gneJ13_0" to="gneE18" fromLane="0" toLane="0" dir="r" state="M"/>
    <connection from=":gneJ13_1" to="gneE15" fromLane="0" toLane="0" dir="s" state="M"/>
    <connection from=":gneJ13_2" to="gneE37" fromLane="0" toLane="1" via=":gneJ13_9_0" dir="l" state="m"/>
    <connection from=":gneJ13_9" to="gneE37" fromLane="0" toLane="1" dir="l" state="M"/>
    <connection from=":gneJ13_3" to="gneE37" fromLane="0" toLane="0" dir="r" state="M"/>
    <connection from=":gneJ13_4" to="gneE25" fromLane="0" toLane="0" dir="s" state="M"/>
    <connection from=":gneJ13_5" to="gneE18" fromLane="0" toLane="0" via=":gneJ13_10_0" dir="l" state="m"/>
    <connection from=":gneJ13_10" to="gneE18" fromLane="0" toLane="0" dir="l" state="M"/>
    <connection from=":gneJ13_6" to="gneE15" fromLane="0" toLane="0" dir="r" state="M"/>
    <connection from=":gneJ13_7" to="gneE37" fromLane="0" toLane="1" dir="s" state="M"/>
    <connection from=":gneJ13_8" to="gneE25" fromLane="0" toLane="0" dir="l" state="M"/>
    <connection from=":gneJ17_0" to="gneE19" fromLane="0" toLane="0" dir="l" state="M"/>
    <connection from=":gneJ17_1" to="gneE20" fromLane="0" toLane="0" dir="r" state="M"/>
    <connection from=":gneJ18_0" to="gneE23" fromLane="0" toLane="0" dir="s" state="M"/>
    <connection from=":gneJ18_1" to="gneE21" fromLane="0" toLane="0" via=":gneJ18_6_0" dir="l" state="m"/>
    <connection from=":gneJ18_6" to="gneE21" fromLane="0" toLane="0" dir="l" state="M"/>
    <connection from=":gneJ18_2" to="gneE27" fromLane="0" toLane="0" dir="r" state="M"/>
    <connection from=":gneJ18_3" to="gneE23" fromLane="0" toLane="0" dir="l" state="M"/>
    <connection from=":gneJ18_4" to="gneE21" fromLane="0" toLane="0" dir="r" state="M"/>
    <connection from=":gneJ18_5" to="gneE27" fromLane="0" toLane="0" dir="s" state="M"/>
    <connection from=":gneJ19_0" to="gneE24" fromLane="0" toLane="0" dir="r" state="M"/>
    <connection from=":gneJ19_1" to="gneE22" fromLane="0" toLane="0" dir="s" state="M"/>
    <connection from=":gneJ19_2" to="gneE26" fromLane="0" toLane="0" dir="s" state="M"/>
    <connection from=":gneJ19_3" to="gneE24" fromLane="0" toLane="0" via=":gneJ19_6_0" dir="l" state="m"/>
    <connection from=":gneJ19_6" to="gneE24" fromLane="0" toLane="0" dir="l" state="M"/>
    <connection from=":gneJ19_4" to="gneE22" fromLane="0" toLane="0" dir="r" state="M"/>
    <connection from=":gneJ19_5" to="gneE26" fromLane="0" toLane="0" dir="l" state="M"/>
    <connection from=":gneJ20_0" to="gneE36" fromLane="0" toLane="0" dir="r" state="M"/>
    <connection from=":gneJ20_1" to="gneE30" fromLane="0" toLane="0" dir="s" state="M"/>
    <connection from=":gneJ20_2" to="gneE33" fromLane="0" toLane="0" dir="s" state="M"/>
    <connection from=":gneJ20_3" to="gneE36" fromLane="0" toLane="0" via=":gneJ20_6_0" dir="l" state="m"/>
    <connection from=":gneJ20_6" to="gneE36" fromLane="0" toLane="0" dir="l" state="M"/>
    <connection from=":gneJ20_4" to="gneE30" fromLane="0" toLane="0" dir="r" state="M"/>
    <connection from=":gneJ20_5" to="gneE33" fromLane="0" toLane="0" dir="l" state="M"/>
    <connection from=":gneJ21_0" to="gneE29" fromLane="0" toLane="0" dir="l" state="M"/>
    <connection from=":gneJ21_1" to="gneE28" fromLane="0" toLane="0" dir="r" state="M"/>
    <connection from=":gneJ24_0" to="gneE39" fromLane="0" toLane="0" dir="s" state="M"/>
    <connection from=":gneJ24_1" to="gneE34" fromLane="0" toLane="0" via=":gneJ24_4_0" dir="l" state="m"/>
    <connection from=":gneJ24_4" to="gneE34" fromLane="0" toLane="0" dir="l" state="M"/>