<?xml version="1.0" encoding="UTF-8"?>

<!-- generated on 10/08/21 21:54:34 by Eclipse SUMO netedit Version 1.8.0
<configuration xmlns:xsi="http://www.w3.org/2001/XMLSchema-instance" xsi:noNamespaceSchemaLocation="http://sumo.dlr.de/xsd/netconvertConfiguration.xsd">

    <input>
        <sumo-net-file value="C:\Users\Local_Man\Desktop\Stolen%20Music\school%20stuff%20for%20college\RESEARCH\coding\SUMO\Selfless-Traffic-Routing-Testbed-master\configurations\Brooklyn_New_York.net.xml"/>
    </input>

    <output>
        <output-file value="C:\Users\Local_Man\Desktop\Stolen%20Music\school%20stuff%20for%20college\RESEARCH\coding\SUMO\Selfless-Traffic-Routing-Testbed-master\configurations\Brooklyn_New_York_reduced.net.xml"/>
        <output.street-names value="true"/>
    </output>

    <processing>
        <geometry.min-radius.fix.railways value="false"/>
        <geometry.max-grade.fix value="false"/>
        <offset.disable-normalization value="true"/>
        <lefthand value="false"/>
    </processing>

    <junctions>
        <no-turnarounds value="true"/>
        <junctions.corner-detail value="5"/>
        <junctions.limit-turn-speed value="5.5"/>
        <rectangular-lane-cut value="false"/>
    </junctions>

    <pedestrian>
        <walkingareas value="false"/>
    </pedestrian>

    <report>
        <aggregate-warnings value="5"/>
    </report>

</configuration>
-->

<net version="1.6" junctionCornerDetail="5" limitTurnSpeed="5.50" xmlns:xsi="http://www.w3.org/2001/XMLSchema-instance" xsi:noNamespaceSchemaLocation="http://sumo.dlr.de/xsd/net_file.xsd">

    <location netOffset="-588627.82,-4508563.64" convBoundary="0.00,0.00,4368.81,3055.59" origBoundary="-73.961731,40.714126,-73.843480,40.750280" projParameter="+proj=utm +zone=18 +ellps=WGS84 +datum=WGS84 +units=m +no_defs"/>

    <type id="highway.bridleway" priority="1" numLanes="1" speed="2.78" allow="pedestrian" oneway="1" width="2.00"/>
    <type id="highway.bus_guideway" priority="1" numLanes="1" speed="27.78" allow="bus" oneway="1"/>
    <type id="highway.cycleway" priority="1" numLanes="1" speed="8.33" allow="bicycle" oneway="1" width="1.00"/>
    <type id="highway.footway" priority="1" numLanes="1" speed="2.78" allow="pedestrian" oneway="1" width="2.00"/>
    <type id="highway.ford" priority="1" numLanes="1" speed="2.78" allow="army" oneway="1"/>
    <type id="highway.living_street" priority="2" numLanes="1" speed="2.78" disallow="tram rail_urban rail rail_electric rail_fast ship" oneway="1"/>
    <type id="highway.motorway" priority="14" numLanes="2" speed="39.44" allow="private emergency authority army vip passenger hov taxi bus coach delivery truck trailer motorcycle evehicle custom1 custom2" oneway="1"/>
    <type id="highway.motorway_link" priority="9" numLanes="1" speed="22.22" allow="private emergency authority army vip passenger hov taxi bus coach delivery truck trailer motorcycle evehicle custom1 custom2" oneway="1"/>
    <type id="highway.path" priority="1" numLanes="1" speed="2.78" allow="pedestrian bicycle" oneway="1" width="2.00"/>
    <type id="highway.pedestrian" priority="1" numLanes="1" speed="2.78" allow="pedestrian" oneway="1" width="2.00"/>
    <type id="highway.primary" priority="12" numLanes="2" speed="27.78" disallow="tram rail_urban rail rail_electric rail_fast ship" oneway="1"/>
    <type id="highway.primary_link" priority="7" numLanes="1" speed="22.22" disallow="tram rail_urban rail rail_electric rail_fast ship" oneway="1"/>
    <type id="highway.raceway" priority="15" numLanes="2" speed="83.33" allow="vip" oneway="1"/>
    <type id="highway.residential" priority="3" numLanes="1" speed="13.89" disallow="tram rail_urban rail rail_electric rail_fast ship" oneway="1"/>
    <type id="highway.secondary" priority="11" numLanes="1" speed="27.78" disallow="tram rail_urban rail rail_electric rail_fast ship" oneway="1"/>
    <type id="highway.secondary_link" priority="6" numLanes="1" speed="22.22" disallow="tram rail_urban rail rail_electric rail_fast ship" oneway="1"/>
    <type id="highway.service" priority="1" numLanes="1" speed="5.56" allow="pedestrian delivery bicycle" oneway="1"/>
    <type id="highway.stairs" priority="1" numLanes="1" speed="1.39" allow="pedestrian" oneway="1" width="2.00"/>
    <type id="highway.step" priority="1" numLanes="1" speed="1.39" allow="pedestrian" oneway="1" width="2.00"/>
    <type id="highway.steps" priority="1" numLanes="1" speed="1.39" allow="pedestrian" oneway="1" width="2.00"/>
    <type id="highway.tertiary" priority="10" numLanes="1" speed="22.22" disallow="tram rail_urban rail rail_electric rail_fast ship" oneway="1"/>
    <type id="highway.tertiary_link" priority="5" numLanes="1" speed="22.22" disallow="tram rail_urban rail rail_electric rail_fast ship" oneway="1"/>
    <type id="highway.track" priority="1" numLanes="1" speed="5.56" allow="pedestrian motorcycle moped bicycle" oneway="1"/>
    <type id="highway.trunk" priority="13" numLanes="2" speed="27.78" disallow="pedestrian bicycle tram rail_urban rail rail_electric rail_fast ship" oneway="1"/>
    <type id="highway.trunk_link" priority="8" numLanes="1" speed="22.22" disallow="pedestrian bicycle tram rail_urban rail rail_electric rail_fast ship" oneway="1"/>
    <type id="highway.unclassified" priority="4" numLanes="1" speed="13.89" disallow="tram rail_urban rail rail_electric rail_fast ship" oneway="1"/>
    <type id="highway.unsurfaced" priority="1" numLanes="1" speed="8.33" disallow="tram rail_urban rail rail_electric rail_fast ship" oneway="1"/>
    <type id="railway.highspeed" priority="21" numLanes="1" speed="69.44" allow="rail_fast" oneway="1"/>
    <type id="railway.light_rail" priority="19" numLanes="1" speed="27.78" allow="rail_urban" oneway="1"/>
    <type id="railway.preserved" priority="16" numLanes="1" speed="27.78" allow="rail" oneway="1"/>
    <type id="railway.rail" priority="20" numLanes="1" speed="44.44" allow="rail" oneway="1"/>
    <type id="railway.subway" priority="18" numLanes="1" speed="27.78" allow="rail_urban" oneway="1"/>
    <type id="railway.tram" priority="17" numLanes="1" speed="13.89" allow="tram" oneway="1"/>

    <edge id=":1056072092_0" function="internal">
        <lane id=":1056072092_0_0" index="0" disallow="tram rail_urban rail rail_electric rail_fast ship" speed="5.72" length="7.29" shape="1039.16,1256.56 1037.99,1255.92 1036.61,1256.14 1035.02,1257.22 1033.23,1259.15"/>
    </edge>
    <edge id=":1056072092_1" function="internal">
        <lane id=":1056072092_1_0" index="0" disallow="tram rail_urban rail rail_electric rail_fast ship" speed="18.06" length="12.13" shape="1039.16,1256.56 1036.73,1254.33 1034.51,1252.70 1032.12,1251.30 1029.20,1249.75"/>
    </edge>
    <edge id=":1056072092_2" function="internal">
        <lane id=":1056072092_2_0" index="0" disallow="tram rail_urban rail rail_electric rail_fast ship" speed="6.00" length="1.42" shape="1039.16,1256.56 1038.19,1255.52"/>
    </edge>
    <edge id=":1056072092_9" function="internal">
        <lane id=":1056072092_9_0" index="0" disallow="tram rail_urban rail rail_electric rail_fast ship" speed="6.00" length="5.45" shape="1038.19,1255.52 1037.29,1254.55 1036.09,1252.95 1035.57,1251.74 1035.71,1250.95"/>
    </edge>
    <edge id=":1056072092_3" function="internal">
        <lane id=":1056072092_3_0" index="0" disallow="tram rail_urban rail rail_electric rail_fast ship" speed="27.78" length="7.96" shape="1038.21,1252.94 1033.23,1259.15"/>
    </edge>
    <edge id=":1056072092_4" function="internal">
        <lane id=":1056072092_4_0" index="0" disallow="tram rail_urban rail rail_electric rail_fast ship" speed="7.23" length="2.05" shape="1038.21,1252.94 1037.32,1253.15 1036.21,1252.87"/>
    </edge>
    <edge id=":1056072092_5" function="internal">
        <lane id=":1056072092_5_0" index="0" disallow="tram rail_urban rail rail_electric rail_fast ship" speed="3.65" length="2.34" shape="1038.21,1252.94 1036.83,1253.38 1035.96,1253.19"/>
    </edge>
    <edge id=":1056072092_10" function="internal">
        <lane id=":1056072092_10_0" index="0" disallow="tram rail_urban rail rail_electric rail_fast ship" speed="7.23" length="7.70" shape="1036.21,1252.87 1035.52,1252.69 1032.81,1251.56 1029.20,1249.75"/>
    </edge>
    <edge id=":1056072092_11" function="internal">
        <lane id=":1056072092_11_0" index="0" disallow="tram rail_urban rail rail_electric rail_fast ship" speed="3.65" length="2.34" shape="1035.96,1253.19 1035.58,1252.38 1035.71,1250.95"/>
    </edge>
    <edge id=":1056072092_6" function="internal">
        <lane id=":1056072092_6_0" index="0" disallow="tram rail_urban rail rail_electric rail_fast ship" speed="6.13" length="9.06" shape="1030.73,1257.15 1032.03,1254.95 1032.21,1252.98 1031.26,1251.25 1029.20,1249.75"/>
    </edge>
    <edge id=":1056072092_7" function="internal">
        <lane id=":1056072092_7_0" index="0" disallow="tram rail_urban rail rail_electric rail_fast ship" speed="27.78" length="7.96" shape="1030.73,1257.15 1035.71,1250.95"/>
    </edge>
    <edge id=":1056072092_8" function="internal">
        <lane id=":1056072092_8_0" index="0" disallow="tram rail_urban rail rail_electric rail_fast ship" speed="3.65" length="2.34" shape="1030.73,1257.15 1032.11,1256.72 1032.98,1256.90"/>
    </edge>
    <edge id=":1056072092_12" function="internal">
        <lane id=":1056072092_12_0" index="0" disallow="tram rail_urban rail rail_electric rail_fast ship" speed="3.65" length="2.34" shape="1032.98,1256.90 1033.35,1257.72 1033.23,1259.15"/>
    </edge>
    <edge id=":1056072094_0" function="internal">
        <lane id=":1056072094_0_0" index="0" disallow="tram rail_urban rail rail_electric rail_fast ship" speed="6.83" length="9.70" shape="1059.13,1226.63 1057.66,1228.91 1057.20,1231.10 1057.77,1233.20 1059.37,1235.22"/>
    </edge>
    <edge id=":1056072094_1" function="internal">
        <lane id=":1056072094_1_0" index="0" disallow="tram rail_urban rail rail_electric rail_fast ship" speed="27.78" length="11.48" shape="1059.13,1226.63 1051.88,1235.54"/>
    </edge>
    <edge id=":1056072094_2" function="internal">
        <lane id=":1056072094_2_0" index="0" disallow="tram rail_urban rail rail_electric rail_fast ship" speed="3.65" length="2.34" shape="1059.13,1226.63 1057.74,1227.02 1056.88,1226.80"/>
    </edge>
    <edge id=":1056072094_8" function="internal">
        <lane id=":1056072094_8_0" index="0" disallow="tram rail_urban rail rail_electric rail_fast ship" speed="3.65" length="2.34" shape="1056.88,1226.80 1056.53,1225.98 1056.70,1224.55"/>
    </edge>
    <edge id=":1056072094_3" function="internal">
        <lane id=":1056072094_3_0" index="0" disallow="tram rail_urban rail rail_electric rail_fast ship" speed="6.24" length="9.05" shape="1049.02,1224.63 1050.96,1226.25 1052.89,1226.78 1054.80,1226.21 1056.70,1224.55"/>
    </edge>
    <edge id=":1056072094_4" function="internal">
        <lane id=":1056072094_4_0" index="0" disallow="tram rail_urban rail rail_electric rail_fast ship" speed="18.06" length="14.80" shape="1049.02,1224.63 1059.37,1235.22"/>
    </edge>
    <edge id=":1056072094_5" function="internal">
        <lane id=":1056072094_5_0" index="0" disallow="tram rail_urban rail rail_electric rail_fast ship" speed="27.78" length="11.65" shape="1049.35,1233.59 1056.70,1224.55"/>
    </edge>
    <edge id=":1056072094_6" function="internal">
        <lane id=":1056072094_6_0" index="0" disallow="tram rail_urban rail rail_electric rail_fast ship" speed="7.06" length="4.08" shape="1049.35,1233.59 1051.27,1231.99 1052.85,1231.82"/>
    </edge>
    <edge id=":1056072094_7" function="internal">
        <lane id=":1056072094_7_0" index="0" disallow="tram rail_urban rail rail_electric rail_fast ship" speed="3.65" length="2.34" shape="1049.35,1233.59 1050.71,1233.12 1051.59,1233.29"/>
    </edge>
    <edge id=":1056072094_9" function="internal">
        <lane id=":1056072094_9_0" index="0" disallow="tram rail_urban rail rail_electric rail_fast ship" speed="7.06" length="7.56" shape="1052.85,1231.82 1053.59,1231.74 1056.28,1232.81 1059.37,1235.22"/>
    </edge>
    <edge id=":1056072094_10" function="internal">
        <lane id=":1056072094_10_0" index="0" disallow="tram rail_urban rail rail_electric rail_fast ship" speed="3.65" length="2.34" shape="1051.59,1233.29 1051.98,1234.10 1051.88,1235.54"/>
    </edge>
    <edge id=":122625683-AddedOnRampNode_0" function="internal">
        <lane id=":122625683-AddedOnRampNode_0_0" index="0" allow="private emergency authority army vip passenger hov taxi bus coach delivery truck trailer motorcycle evehicle custom1 custom2" speed="20.12" length="8.03" shape="2546.97,1332.69 2554.70,1334.86"/>
        <lane id=":122625683-AddedOnRampNode_0_1" index="1" allow="private emergency authority army vip passenger hov taxi bus coach delivery truck trailer motorcycle evehicle custom1 custom2" speed="20.12" length="8.03" shape="2546.15,1335.79 2553.88,1337.95"/>
        <lane id=":122625683-AddedOnRampNode_0_2" index="2" allow="private emergency authority army vip passenger hov taxi bus coach delivery truck trailer motorcycle evehicle custom1 custom2" speed="20.12" length="8.03" shape="2545.33,1338.88 2553.06,1341.05"/>
    </edge>
    <edge id=":1533280144_0" function="internal">
        <lane id=":1533280144_0_0" index="0" disallow="tram rail_urban rail rail_electric rail_fast ship" speed="16.70" length="3.31" shape="1075.22,1250.10 1075.94,1250.77 1076.44,1251.22 1076.97,1251.65 1077.74,1252.25"/>
    </edge>
    <edge id=":1533280144_1" function="internal">
        <lane id=":1533280144_1_0" index="0" disallow="tram rail_urban rail rail_electric rail_fast ship" speed="11.18" length="3.49" shape="1072.74,1253.10 1073.71,1253.46 1074.35,1253.76 1074.95,1254.15 1075.77,1254.77"/>
    </edge>
    <edge id=":182690746#1-AddedOnRampNode_0" function="internal">
        <lane id=":182690746#1-AddedOnRampNode_0_0" index="0" disallow="tram rail_urban rail rail_electric rail_fast ship" speed="27.78" length="8.00" shape="1449.44,1557.31 1457.20,1555.39"/>
        <lane id=":182690746#1-AddedOnRampNode_0_1" index="1" disallow="tram rail_urban rail rail_electric rail_fast ship" speed="27.78" length="8.00" shape="1450.20,1560.42 1457.97,1558.50"/>
    </edge>
    <edge id=":2089938046_0" function="internal">
        <lane id=":2089938046_0_0" index="0" disallow="tram rail_urban rail rail_electric rail_fast ship" speed="3.65" length="4.67" shape="3656.21,1969.34 3654.83,1968.93 3654.21,1968.28 3654.36,1967.40 3655.27,1966.28"/>
    </edge>
    <edge id=":221686594-AddedOnRampNode_0" function="internal">
        <lane id=":221686594-AddedOnRampNode_0_0" index="0" allow="private emergency authority army vip passenger hov taxi bus coach delivery truck trailer motorcycle evehicle custom1 custom2" speed="22.22" length="8.00" shape="2140.49,1114.06 2137.29,1106.72"/>
    </edge>
    <edge id=":2262434175_0" function="internal">
        <lane id=":2262434175_0_0" index="0" disallow="tram rail_urban rail rail_electric rail_fast ship" speed="6.51" length="9.00" shape="2752.76,2256.88 2750.39,2257.56 2748.80,2258.83 2747.99,2260.70 2747.97,2263.17"/>
    </edge>
    <edge id=":2262434175_1" function="internal">
        <lane id=":2262434175_1_0" index="0" disallow="tram rail_urban rail rail_electric rail_fast ship" speed="27.78" length="11.24" shape="2752.76,2256.88 2741.60,2258.39"/>
        <lane id=":2262434175_1_1" index="1" disallow="tram rail_urban rail rail_electric rail_fast ship" speed="27.78" length="11.24" shape="2752.32,2253.71 2741.18,2255.22"/>
        <lane id=":2262434175_1_2" index="2" disallow="tram rail_urban rail rail_electric rail_fast ship" speed="27.78" length="11.24" shape="2751.88,2250.54 2740.75,2252.05"/>
        <lane id=":2262434175_1_3" index="3" disallow="tram rail_urban rail rail_electric rail_fast ship" speed="27.78" length="11.24" shape="2751.45,2247.37 2740.33,2248.88"/>
    </edge>
    <edge id=":2262434175_5" function="internal">
        <lane id=":2262434175_5_0" index="0" disallow="tram rail_urban rail rail_electric rail_fast ship" speed="11.41" length="20.79" shape="2745.05,2242.59 2747.97,2263.17"/>
    </edge>
    <edge id=":2262434175_6" function="internal">
        <lane id=":2262434175_6_0" index="0" disallow="tram rail_urban rail rail_electric rail_fast ship" speed="7.28" length="4.02" shape="2745.05,2242.59 2745.28,2246.45 2745.24,2246.60"/>
    </edge>
    <edge id=":2262434175_7" function="internal">
        <lane id=":2262434175_7_0" index="0" disallow="tram rail_urban rail rail_electric rail_fast ship" speed="6.46" length="4.26" shape="2745.05,2242.59 2745.07,2245.06 2744.38,2246.71"/>
    </edge>
    <edge id=":2262434175_8" function="internal">
        <lane id=":2262434175_8_0" index="0" disallow="tram rail_urban rail rail_electric rail_fast ship" speed="7.28" length="7.71" shape="2745.24,2246.60 2744.64,2249.31 2743.13,2251.18 2740.75,2252.05"/>
    </edge>
    <edge id=":2262434175_9" function="internal">
        <lane id=":2262434175_9_0" index="0" disallow="tram rail_urban rail rail_electric rail_fast ship" speed="6.46" length="4.74" shape="2744.38,2246.71 2744.29,2246.93 2742.71,2248.20 2740.33,2248.88"/>
    </edge>
    <edge id=":2708237394_0" function="internal">
        <lane id=":2708237394_0_0" index="0" disallow="tram rail_urban rail rail_electric rail_fast ship" speed="6.49" length="9.03" shape="2111.15,2293.68 2111.83,2296.06 2113.11,2297.64 2114.99,2298.43 2117.47,2298.43"/>
    </edge>
    <edge id=":2708237394_1" function="internal">
        <lane id=":2708237394_1_0" index="0" disallow="tram rail_urban rail rail_electric rail_fast ship" speed="7.31" length="11.74" shape="2111.15,2293.68 2112.02,2297.44 2113.44,2300.02 2115.41,2301.40 2117.93,2301.60"/>
    </edge>
    <edge id=":2708237394_2" function="internal">
        <lane id=":2708237394_2_0" index="0" disallow="tram rail_urban rail rail_electric rail_fast ship" speed="11.41" length="20.82" shape="2111.15,2293.68 2114.09,2314.28"/>
    </edge>
    <edge id=":2708237394_3" function="internal">
        <lane id=":2708237394_3_0" index="0" disallow="tram rail_urban rail rail_electric rail_fast ship" speed="27.78" length="11.26" shape="2106.36,2299.99 2117.47,2298.43"/>
        <lane id=":2708237394_3_1" index="1" disallow="tram rail_urban rail rail_electric rail_fast ship" speed="27.78" length="11.26" shape="2106.79,2303.16 2117.93,2301.60"/>
        <lane id=":2708237394_3_2" index="2" disallow="tram rail_urban rail rail_electric rail_fast ship" speed="27.78" length="11.26" shape="2107.22,2306.33 2118.39,2304.76"/>
        <lane id=":2708237394_3_3" index="3" disallow="tram rail_urban rail rail_electric rail_fast ship" speed="27.78" length="11.26" shape="2107.65,2309.50 2118.85,2307.93"/>
    </edge>
    <edge id=":2708237394_7" function="internal">
        <lane id=":2708237394_7_0" index="0" disallow="tram rail_urban rail rail_electric rail_fast ship" speed="6.56" length="9.12" shape="2107.65,2309.50 2110.16,2309.51 2112.07,2310.32 2113.38,2311.90 2114.09,2314.28"/>
    </edge>
    <edge id=":2708237395_0" function="internal">
        <lane id=":2708237395_0_0" index="0" disallow="tram rail_urban rail rail_electric rail_fast ship" speed="6.51" length="9.03" shape="2124.16,2344.48 2121.78,2345.16 2120.20,2346.45 2119.40,2348.33 2119.39,2350.80"/>
    </edge>
    <edge id=":2708237395_1" function="internal">
        <lane id=":2708237395_1_0" index="0" disallow="tram rail_urban rail rail_electric rail_fast ship" speed="27.78" length="11.21" shape="2124.16,2344.48 2113.08,2346.06"/>
        <lane id=":2708237395_1_1" index="1" disallow="tram rail_urban rail rail_electric rail_fast ship" speed="27.78" length="11.21" shape="2123.71,2341.31 2112.62,2342.89"/>
        <lane id=":2708237395_1_2" index="2" disallow="tram rail_urban rail rail_electric rail_fast ship" speed="27.78" length="11.21" shape="2123.27,2338.14 2112.16,2339.73"/>
        <lane id=":2708237395_1_3" index="3" disallow="tram rail_urban rail rail_electric rail_fast ship" speed="27.78" length="11.21" shape="2122.82,2334.97 2111.71,2336.56"/>
    </edge>
    <edge id=":2708237395_5" function="internal">
        <lane id=":2708237395_5_0" index="0" disallow="tram rail_urban rail rail_electric rail_fast ship" speed="13.89" length="20.79" shape="2116.45,2330.22 2119.39,2350.80"/>
    </edge>
    <edge id=":2708237395_6" function="internal">
        <lane id=":2708237395_6_0" index="0" disallow="tram rail_urban rail rail_electric rail_fast ship" speed="7.32" length="4.03" shape="2116.45,2330.22 2116.66,2334.07 2116.63,2334.24"/>
    </edge>
    <edge id=":2708237395_7" function="internal">
        <lane id=":2708237395_7_0" index="0" disallow="tram rail_urban rail rail_electric rail_fast ship" speed="6.50" length="4.29" shape="2116.45,2330.22 2116.46,2332.69 2115.76,2334.36"/>
    </edge>
    <edge id=":2708237395_8" function="internal">
        <lane id=":2708237395_8_0" index="0" disallow="tram rail_urban rail rail_electric rail_fast ship" speed="7.32" length="7.70" shape="2116.63,2334.24 2116.02,2336.94 2114.52,2338.83 2112.16,2339.73"/>
    </edge>
    <edge id=":2708237395_9" function="internal">
        <lane id=":2708237395_9_0" index="0" disallow="tram rail_urban rail rail_electric rail_fast ship" speed="6.50" length="4.75" shape="2115.76,2334.36 2115.67,2334.57 2114.09,2335.86 2111.71,2336.56"/>
    </edge>
    <edge id=":276207582_0" function="internal">
        <lane id=":276207582_0_0" index="0" disallow="tram rail_urban rail rail_electric rail_fast ship" speed="6.51" length="9.03" shape="2824.28,2252.70 2823.60,2250.32 2822.32,2248.73 2820.44,2247.93 2817.97,2247.92"/>
    </edge>
    <edge id=":276207582_1" function="internal">
        <lane id=":276207582_1_0" index="0" disallow="tram rail_urban rail rail_electric rail_fast ship" speed="7.33" length="11.73" shape="2824.28,2252.70 2823.41,2248.94 2821.99,2246.35 2820.04,2244.96 2817.53,2244.75"/>
    </edge>
    <edge id=":276207582_2" function="internal">
        <lane id=":276207582_2_0" index="0" disallow="tram rail_urban rail rail_electric rail_fast ship" speed="3.65" length="4.67" shape="2824.28,2252.70 2824.91,2251.40 2825.65,2250.90 2826.49,2251.19 2827.45,2252.27"/>
    </edge>
    <edge id=":276207582_3" function="internal">
        <lane id=":276207582_3_0" index="0" disallow="tram rail_urban rail rail_electric rail_fast ship" speed="6.53" length="9.05" shape="2832.21,2245.90 2829.84,2246.60 2828.26,2247.89 2827.46,2249.78 2827.45,2252.27"/>
    </edge>
    <edge id=":276207582_4" function="internal">
        <lane id=":276207582_4_0" index="0" disallow="tram rail_urban rail rail_electric rail_fast ship" speed="27.78" length="14.35" shape="2832.21,2245.90 2817.97,2247.92"/>
        <lane id=":276207582_4_1" index="1" disallow="tram rail_urban rail rail_electric rail_fast ship" speed="27.78" length="14.35" shape="2831.75,2242.73 2817.53,2244.75"/>
        <lane id=":276207582_4_2" index="2" disallow="tram rail_urban rail rail_electric rail_fast ship" speed="27.78" length="14.35" shape="2831.29,2239.57 2817.10,2241.58"/>
        <lane id=":276207582_4_3" index="3" disallow="tram rail_urban rail rail_electric rail_fast ship" speed="27.78" length="14.35" shape="2830.83,2236.40 2816.66,2238.41"/>
    </edge>
    <edge id=":276207583_0" function="internal">
        <lane id=":276207583_0_0" index="0" disallow="tram rail_urban rail rail_electric rail_fast ship" speed="6.80" length="9.42" shape="1490.88,2437.45 1490.17,2435.16 1488.80,2433.59 1486.75,2432.73 1484.03,2432.59"/>
    </edge>
    <edge id=":276207583_1" function="internal">
        <lane id=":276207583_1_0" index="0" disallow="tram rail_urban rail rail_electric rail_fast ship" speed="7.58" length="11.94" shape="1490.88,2437.45 1489.99,2433.77 1488.52,2431.21 1486.46,2429.75 1483.81,2429.39"/>
    </edge>
    <edge id=":276207583_2" function="internal">
        <lane id=":276207583_2_0" index="0" disallow="tram rail_urban rail rail_electric rail_fast ship" speed="13.89" length="20.41" shape="1490.88,2437.45 1488.05,2417.24"/>
    </edge>
    <edge id=":276207583_3" function="internal">
        <lane id=":276207583_3_0" index="0" disallow="tram rail_urban rail rail_electric rail_fast ship" speed="27.78" length="11.18" shape="1495.44,2431.48 1484.03,2432.59"/>
        <lane id=":276207583_3_1" index="1" disallow="tram rail_urban rail rail_electric rail_fast ship" speed="27.78" length="11.18" shape="1495.04,2428.30 1483.81,2429.39"/>
        <lane id=":276207583_3_2" index="2" disallow="tram rail_urban rail rail_electric rail_fast ship" speed="27.78" length="11.18" shape="1494.63,2425.13 1483.59,2426.20"/>
        <lane id=":276207583_3_3" index="3" disallow="tram rail_urban rail rail_electric rail_fast ship" speed="27.78" length="11.18" shape="1494.22,2421.95 1483.37,2423.01"/>
    </edge>
    <edge id=":276207583_7" function="internal">
        <lane id=":276207583_7_0" index="0" disallow="tram rail_urban rail rail_electric rail_fast ship" speed="6.47" length="8.84" shape="1494.22,2421.95 1491.80,2421.92 1489.97,2421.12 1488.72,2419.56 1488.05,2417.24"/>
    </edge>
    <edge id=":276299039_0" function="internal">
        <lane id=":276299039_0_0" index="0" disallow="tram rail_urban rail rail_electric rail_fast ship" speed="6.16" length="9.05" shape="3710.27,2070.32 3710.67,2072.84 3711.78,2074.47 3713.61,2075.24 3716.16,2075.12"/>
    </edge>
    <edge id=":276299039_1" function="internal">
        <lane id=":276299039_1_0" index="0" disallow="tram rail_urban rail rail_electric rail_fast ship" speed="3.65" length="4.67" shape="3710.27,2070.32 3709.49,2071.53 3708.69,2071.95 3707.89,2071.56 3707.07,2070.37"/>
    </edge>
    <edge id=":276299039_2" function="internal">
        <lane id=":276299039_2_0" index="0" disallow="tram rail_urban rail rail_electric rail_fast ship" speed="7.14" length="9.89" shape="3701.84,2077.62 3704.16,2076.85 3705.81,2075.39 3706.78,2073.23 3707.07,2070.37"/>
    </edge>
    <edge id=":276299039_3" function="internal">
        <lane id=":276299039_3_0" index="0" disallow="tram rail_urban rail rail_electric rail_fast ship" speed="11.18" length="14.53" shape="3701.84,2077.62 3716.16,2075.12"/>
    </edge>
    <edge id=":276299049_0" function="internal">
        <lane id=":276299049_0_0" index="0" disallow="tram rail_urban rail rail_electric rail_fast ship" speed="6.51" length="9.02" shape="3550.50,2142.96 3548.13,2143.66 3546.55,2144.94 3545.76,2146.82 3545.76,2149.29"/>
    </edge>
    <edge id=":276299049_1" function="internal">
        <lane id=":276299049_1_0" index="0" disallow="tram rail_urban rail rail_electric rail_fast ship" speed="11.18" length="11.18" shape="3550.50,2142.96 3539.44,2144.53"/>
    </edge>
    <edge id=":276299050_0" function="internal">
        <lane id=":276299050_0_0" index="0" disallow="tram rail_urban rail rail_electric rail_fast ship" speed="6.53" length="9.04" shape="3467.67,2160.21 3466.98,2157.83 3465.69,2156.24 3463.81,2155.43 3461.34,2155.41"/>
    </edge>
    <edge id=":276299050_1" function="internal">
        <lane id=":276299050_1_0" index="0" disallow="tram rail_urban rail rail_electric rail_fast ship" speed="13.89" length="11.04" shape="3467.67,2160.21 3466.09,2149.29"/>
    </edge>
    <edge id=":276299050_2" function="internal">
        <lane id=":276299050_2_0" index="0" disallow="tram rail_urban rail rail_electric rail_fast ship" speed="11.18" length="11.19" shape="3472.44,2154.00 3461.34,2155.41"/>
    </edge>
    <edge id=":276299051_0" function="internal">
        <lane id=":276299051_0_0" index="0" disallow="tram rail_urban rail rail_electric rail_fast ship" speed="6.48" length="9.03" shape="3394.38,2164.52 3391.99,2165.20 3390.41,2166.48 3389.62,2168.36 3389.63,2170.84"/>
    </edge>
    <edge id=":276299051_1" function="internal">
        <lane id=":276299051_1_0" index="0" disallow="tram rail_urban rail rail_electric rail_fast ship" speed="11.18" length="11.21" shape="3394.38,2164.52 3383.27,2166.07"/>
    </edge>
    <edge id=":276299052_0" function="internal">
        <lane id=":276299052_0_0" index="0" disallow="tram rail_urban rail rail_electric rail_fast ship" speed="6.47" length="9.03" shape="3314.80,2181.79 3314.11,2179.41 3312.83,2177.83 3310.95,2177.05 3308.47,2177.08"/>
    </edge>
    <edge id=":276299052_1" function="internal">
        <lane id=":276299052_1_0" index="0" disallow="tram rail_urban rail rail_electric rail_fast ship" speed="13.89" length="10.90" shape="3314.80,2181.79 3313.31,2171.00"/>
    </edge>
    <edge id=":276299052_2" function="internal">
        <lane id=":276299052_2_0" index="0" disallow="tram rail_urban rail rail_electric rail_fast ship" speed="11.18" length="11.25" shape="3319.59,2175.36 3308.47,2177.08"/>
    </edge>
    <edge id=":276299053_0" function="internal">
        <lane id=":276299053_0_0" index="0" disallow="tram rail_urban rail rail_electric rail_fast ship" speed="6.61" length="9.30" shape="3164.59,2204.13 3163.87,2201.77 3162.51,2200.20 3160.52,2199.42 3157.90,2199.43"/>
    </edge>
    <edge id=":276299053_1" function="internal">
        <lane id=":276299053_1_0" index="0" disallow="tram rail_urban rail rail_electric rail_fast ship" speed="13.89" length="11.02" shape="3164.59,2204.13 3164.11,2201.04 3163.63,2198.71 3162.97,2196.42 3161.95,2193.46"/>
    </edge>
    <edge id=":276299053_2" function="internal">
        <lane id=":276299053_2_0" index="0" disallow="tram rail_urban rail rail_electric rail_fast ship" speed="11.18" length="11.52" shape="3169.30,2197.82 3157.90,2199.43"/>
    </edge>
    <edge id=":276299054_0" function="internal">