<?xml version="1.0" encoding="UTF-8"?>

<!-- generated on 08/10/21 16:51:11 by Eclipse SUMO netedit Version 1.8.0
<configuration xmlns:xsi="http://www.w3.org/2001/XMLSchema-instance" xsi:noNamespaceSchemaLocation="http://sumo.dlr.de/xsd/netconvertConfiguration.xsd">

    <input>
        <sumo-net-file value="C:\Users\Local_Man\Desktop\Stolen%20Music\school%20stuff%20for%20college\RESEARCH\coding\SUMO\Selfless-Traffic-Routing-Testbed-master\configurations\I_am_speed.net.xml"/>
    </input>

    <output>
        <output-file value="C:\Users\Local_Man\Desktop\Stolen%20Music\school%20stuff%20for%20college\RESEARCH\coding\SUMO\Selfless-Traffic-Routing-Testbed-master\configurations\I_am_speed.net.xml"/>
    </output>

    <processing>
        <geometry.min-radius.fix.railways value="false"/>
        <geometry.max-grade.fix value="false"/>
        <offset.disable-normalization value="true"/>
        <lefthand value="false"/>
    </processing>

    <junctions>
        <no-turnarounds value="true"/>
        <junctions.corner-detail value="5"/>
        <junctions.limit-turn-speed value="5.5"/>
        <rectangular-lane-cut value="false"/>
    </junctions>

    <pedestrian>
        <walkingareas value="false"/>
    </pedestrian>

    <report>
        <aggregate-warnings value="5"/>
    </report>

</configuration>
-->

<net version="1.6" junctionCornerDetail="5" limitTurnSpeed="5.50" xmlns:xsi="http://www.w3.org/2001/XMLSchema-instance" xsi:noNamespaceSchemaLocation="http://sumo.dlr.de/xsd/net_file.xsd">

    <location netOffset="0.00,0.00" convBoundary="-88.57,172.59,5522.13,213.90" origBoundary="-10000000000.00,-10000000000.00,10000000000.00,10000000000.00" projParameter="!"/>

    <edge id=":gneJ5_0" function="internal">
        <lane id=":gneJ5_0_0" index="0" speed="13.89" length="0.28" shape="841.45,205.37 841.17,205.37"/>
    </edge>
    <edge id=":gneJ5_1" function="internal">
        <lane id=":gneJ5_1_0" index="0" speed="15.00" length="0.31" shape="841.13,202.17 841.45,202.17"/>
    </edge>
    <edge id=":gneJ7_0" function="internal">
        <lane id=":gneJ7_0_0" index="0" speed="13.89" length="0.31" shape="2716.62,202.55 2716.31,202.55"/>
    </edge>
    <edge id=":gneJ7_1" function="internal">
        <lane id=":gneJ7_1_0" index="0" speed="25.00" length="0.28" shape="2716.31,199.35 2716.59,199.35"/>
    </edge>

    <edge id="gneE2" from="gneJ4" to="gneJ5" priority="-1">
        <lane id="gneE2_0" index="0" speed="10.00" length="929.78" shape="-88.59,212.30 841.13,202.17"/>
    </edge>
    <edge id="gneE4" from="gneJ5" to="gneJ7" priority="-1">
        <lane id="gneE4_0" index="0" speed="20.00" length="1874.87" shape="841.45,202.17 2716.31,199.35"/>
    </edge>
    <edge id="gneE5" from="gneJ7" to="gneJ8" priority="-1">
        <lane id="gneE5_0" index="0" speed="30.00" length="2805.67" shape="2716.59,199.35 5522.11,170.99"/>
    </edge>
    <edge id="gneE6" from="gneJ8" to="gneJ7" priority="-1">
        <lane id="gneE6_0" index="0" speed="13.89" length="2805.67" shape="5522.15,174.19 2716.62,202.55"/>
    </edge>
    <edge id="gneE7" from="gneJ7" to="gneJ5" priority="-1">
        <lane id="gneE7_0" index="0" speed="13.89" length="1874.87" shape="2716.31,202.55 841.45,205.37"/>
    </edge>
    <edge id="gneE8" from="gneJ5" to="gneJ4" priority="-1">
        <lane id="gneE8_0" index="0" speed="13.89" length="929.78" shape="841.17,205.37 -88.55,215.50"/>
    </edge>

    <junction id="gneJ4" type="dead_end" x="-88.57" y="213.90" incLanes="gneE8_0" intLanes="" shape="-88.57,213.90 -88.54,217.10 -88.57,213.90"/>
    <junction id="gneJ5" type="priority" x="841.30" y="203.77" incLanes="gneE7_0 gneE2_0" intLanes=":gneJ5_0_0 :gneJ5_1_0" shape="841.45,206.97 841.44,200.57 841.12,200.57 841.19,206.97">
        <request index="0" response="00" foes="00" cont="0"/>
        <request index="1" response="00" foes="00" cont="0"/>
    </junction>
    <junction id="gneJ7" type="priority" x="2716.46" y="200.95" incLanes="gneE6_0 gneE4_0" intLanes=":gneJ7_0_0 :gneJ7_1_0" shape="2716.64,204.15 2716.58,197.75 2716.31,197.75 2716.32,204.15">
        <request index="0" response="00" foes="00" cont="0"/>
        <request index="1" response="00" foes="00" cont="0"/>
    </junction>
    <junction id="gneJ8" type="dead_end" x="5522.13" y="172.59" incLanes="gneE5_0" intLanes="" shape="5522.13,172.59 5522.10,169.39 5522.13,172.59"/>

    <connection from="gneE2" to="gneE4" fromLane="0" toLane="0" via=":gneJ5_1_0" dir="s" state="M"/>
    <connection from="gneE4" to="gneE5" fromLane="0" toLane="0" via=":gneJ7_1_0" dir="s" state="M"/>
    <connection from="gneE6" to="gneE7" fromLane="0" toLane="0" via=":gneJ7_0_0" dir="s" state="M"/>
    <connection from="gneE7" to="gneE8" fromLane="0" toLane="0" via=":gneJ5_0_0" dir="s" state="M"/>

    <connection from=":gneJ5_0" to="gneE8" fromLane="0" toLane="0" dir="s" state="M"/>
    <connection from=":gneJ5_1" to="gneE4" fromLane="0" toLane="0" dir="s" state="M"/>
    <connection from=":gneJ7_0" to="gneE7" fromLane="0" toLane="0" dir="s" state="M"/>
    <connection from=":gneJ7_1" to="gneE5" fromLane="0" toLane="0" dir="s" state="M"/>

</net>
