<?xml version="1.0" encoding="UTF-8"?>

<!-- generated on 07/30/21 19:04:26 by Eclipse SUMO netedit Version 1.8.0
<configuration xmlns:xsi="http://www.w3.org/2001/XMLSchema-instance" xsi:noNamespaceSchemaLocation="http://sumo.dlr.de/xsd/netconvertConfiguration.xsd">

    <output>
        <output-file value="C:\Users\Local_Man\Desktop\Stolen%20Music\school%20stuff%20for%20college\RESEARCH\coding\SUMO\Selfless-Traffic-Routing-Testbed-master\configurations\Intersection_example.net.xml"/>
    </output>

    <processing>
        <offset.disable-normalization value="true"/>
    </processing>

    <junctions>
        <no-turnarounds value="true"/>
    </junctions>

    <report>
        <aggregate-warnings value="5"/>
    </report>

</configuration>
-->

<net version="1.6" junctionCornerDetail="5" limitTurnSpeed="5.50" xmlns:xsi="http://www.w3.org/2001/XMLSchema-instance" xsi:noNamespaceSchemaLocation="http://sumo.dlr.de/xsd/net_file.xsd">

    <location netOffset="0.00,0.00" convBoundary="4.63,-20.00,161.65,126.38" origBoundary="10000000000.00,10000000000.00,-10000000000.00,-10000000000.00" projParameter="!"/>

    <edge id=":gneJ1_0" function="internal">
        <lane id=":gneJ1_0_0" index="0" speed="6.47" length="9.03" shape="35.54,56.06 35.18,53.60 34.13,51.86 32.37,50.84 29.91,50.54"/>
    </edge>
    <edge id=":gneJ1_1" function="internal">
        <lane id=":gneJ1_1_0" index="0" speed="13.89" length="14.43" shape="35.54,56.06 35.39,41.62"/>
    </edge>
    <edge id=":gneJ1_2" function="internal">
        <lane id=":gneJ1_2_0" index="0" speed="8.03" length="5.87" shape="35.54,56.06 36.08,52.18 37.08,50.50"/>
    </edge>
    <edge id=":gneJ1_12" function="internal">
        <lane id=":gneJ1_12_0" index="0" speed="8.03" length="8.37" shape="37.08,50.50 37.73,49.40 40.47,47.72 44.30,47.14"/>
    </edge>
    <edge id=":gneJ1_3" function="internal">
        <lane id=":gneJ1_3_0" index="0" speed="6.54" length="9.10" shape="44.33,50.34 41.88,50.71 40.13,51.79 39.09,53.57 38.74,56.05"/>
    </edge>
    <edge id=":gneJ1_4" function="internal">
        <lane id=":gneJ1_4_0" index="0" speed="13.89" length="14.42" shape="44.33,50.34 29.91,50.54"/>
    </edge>
    <edge id=":gneJ1_5" function="internal">
        <lane id=":gneJ1_5_0" index="0" speed="8.04" length="5.86" shape="44.33,50.34 40.48,49.82 38.77,48.82"/>
    </edge>
    <edge id=":gneJ1_13" function="internal">
        <lane id=":gneJ1_13_0" index="0" speed="8.04" length="8.34" shape="38.77,48.82 37.71,48.19 36.01,45.46 35.39,41.62"/>
    </edge>
    <edge id=":gneJ1_6" function="internal">
        <lane id=":gneJ1_6_0" index="0" speed="6.56" length="9.09" shape="38.59,41.56 38.99,44.02 40.07,45.77 41.85,46.81 44.30,47.14"/>
    </edge>
    <edge id=":gneJ1_7" function="internal">
        <lane id=":gneJ1_7_0" index="0" speed="13.89" length="14.50" shape="38.59,41.56 38.74,56.05"/>
    </edge>
    <edge id=":gneJ1_8" function="internal">
        <lane id=":gneJ1_8_0" index="0" speed="8.01" length="6.02" shape="38.59,41.56 38.11,45.42 37.05,47.27"/>
    </edge>
    <edge id=":gneJ1_14" function="internal">
        <lane id=":gneJ1_14_0" index="0" speed="8.01" length="8.22" shape="37.05,47.27 36.51,48.20 33.77,49.91 29.91,50.54"/>
    </edge>
    <edge id=":gneJ1_9" function="internal">
        <lane id=":gneJ1_9_0" index="0" speed="6.52" length="9.08" shape="29.84,47.34 32.31,46.94 34.06,45.85 35.08,44.08 35.39,41.62"/>
    </edge>
    <edge id=":gneJ1_10" function="internal">
        <lane id=":gneJ1_10_0" index="0" speed="13.89" length="14.46" shape="29.84,47.34 44.30,47.14"/>
    </edge>
    <edge id=":gneJ1_11" function="internal">
        <lane id=":gneJ1_11_0" index="0" speed="7.97" length="6.00" shape="29.84,47.34 33.73,47.81 35.53,48.86"/>
    </edge>
    <edge id=":gneJ1_15" function="internal">
        <lane id=":gneJ1_15_0" index="0" speed="7.97" length="8.26" shape="35.53,48.86 36.51,49.43 38.18,52.17 38.74,56.05"/>
    </edge>
    <edge id=":gneJ10_0" function="internal">
        <lane id=":gneJ10_0_0" index="0" speed="6.07" length="7.89" shape="129.58,82.16 129.32,84.32 128.43,85.85 126.91,86.77 124.76,87.06"/>
    </edge>
    <edge id=":gneJ10_1" function="internal">
        <lane id=":gneJ10_1_0" index="0" speed="3.90" length="2.63" shape="124.77,83.86 125.49,83.76 126.00,83.46 126.29,82.95 126.38,82.23"/>
    </edge>
    <edge id=":gneJ12_0" function="internal">
        <lane id=":gneJ12_0_0" index="0" speed="6.08" length="7.83" shape="124.54,11.47 126.67,11.77 128.18,12.69 129.07,14.21 129.34,16.34"/>
    </edge>
    <edge id=":gneJ12_1" function="internal">
        <lane id=":gneJ12_1_0" index="0" speed="3.90" length="2.61" shape="126.14,16.29 126.05,15.58 125.75,15.08 125.25,14.77 124.54,14.67"/>
    </edge>
    <edge id=":gneJ2_0" function="internal">
        <lane id=":gneJ2_0_0" index="0" speed="6.53" length="9.06" shape="78.89,55.73 78.51,53.27 77.44,51.53 75.67,50.48 73.22,50.15"/>
    </edge>
    <edge id=":gneJ2_1" function="internal">
        <lane id=":gneJ2_1_0" index="0" speed="13.89" length="14.54" shape="78.89,55.73 78.90,41.19"/>
    </edge>
    <edge id=":gneJ2_2" function="internal">
        <lane id=":gneJ2_2_0" index="0" speed="8.01" length="6.07" shape="78.89,55.73 79.39,51.87 80.49,49.99"/>
    </edge>
    <edge id=":gneJ2_12" function="internal">
        <lane id=":gneJ2_12_0" index="0" speed="8.01" length="8.19" shape="80.49,49.99 81.02,49.10 83.77,47.41 87.66,46.82"/>
    </edge>
    <edge id=":gneJ2_3" function="internal">
        <lane id=":gneJ2_3_0" index="0" speed="6.52" length="9.09" shape="87.69,50.02 85.21,50.40 83.45,51.47 82.41,53.23 82.09,55.69"/>
    </edge>
    <edge id=":gneJ2_4" function="internal">
        <lane id=":gneJ2_4_0" index="0" speed="13.89" length="14.47" shape="87.69,50.02 73.22,50.15"/>
    </edge>
    <edge id=":gneJ2_5" function="internal">
        <lane id=":gneJ2_5_0" index="0" speed="7.96" length="5.96" shape="87.69,50.02 83.79,49.50 82.05,48.47"/>
    </edge>
    <edge id=":gneJ2_13" function="internal">
        <lane id=":gneJ2_13_0" index="0" speed="7.96" length="8.33" shape="82.05,48.47 81.03,47.86 79.40,45.09 78.90,41.19"/>
    </edge>
    <edge id=":gneJ2_6" function="internal">
        <lane id=":gneJ2_6_0" index="0" speed="6.45" length="9.03" shape="82.10,41.24 82.41,43.70 83.45,45.46 85.19,46.49 87.66,46.82"/>
    </edge>
    <edge id=":gneJ2_7" function="internal">
        <lane id=":gneJ2_7_0" index="0" speed="13.89" length="14.45" shape="82.10,41.24 82.09,55.69"/>
    </edge>
    <edge id=":gneJ2_8" function="internal">
        <lane id=":gneJ2_8_0" index="0" speed="8.08" length="5.85" shape="82.10,41.24 81.49,45.12 80.50,46.77"/>
    </edge>
    <edge id=":gneJ2_14" function="internal">
        <lane id=":gneJ2_14_0" index="0" speed="8.08" length="8.42" shape="80.50,46.77 79.81,47.89 77.06,49.57 73.22,50.15"/>
    </edge>
    <edge id=":gneJ2_9" function="internal">
        <lane id=":gneJ2_9_0" index="0" speed="6.61" length="9.19" shape="73.20,46.95 75.66,46.57 77.43,45.49 78.51,43.70 78.90,41.19"/>
    </edge>
    <edge id=":gneJ2_10" function="internal">
        <lane id=":gneJ2_10_0" index="0" speed="13.89" length="14.45" shape="73.20,46.95 87.66,46.82"/>
    </edge>
    <edge id=":gneJ2_11" function="internal">
        <lane id=":gneJ2_11_0" index="0" speed="8.02" length="5.90" shape="73.20,46.95 77.05,47.47 78.78,48.50"/>
    </edge>
    <edge id=":gneJ2_15" function="internal">
        <lane id=":gneJ2_15_0" index="0" speed="8.02" length="8.29" shape="78.78,48.50 79.81,49.10 81.49,51.84 82.09,55.69"/>
    </edge>
    <edge id=":gneJ3_0" function="internal">
        <lane id=":gneJ3_0_0" index="0" speed="6.53" length="9.03" shape="125.82,55.18 125.42,52.74 124.34,51.01 122.57,49.98 120.12,49.66"/>
    </edge>
    <edge id=":gneJ3_1" function="internal">
        <lane id=":gneJ3_1_0" index="0" speed="13.89" length="14.57" shape="125.82,55.18 125.78,40.61"/>
    </edge>
    <edge id=":gneJ3_2" function="internal">
        <lane id=":gneJ3_2_0" index="0" speed="8.06" length="6.08" shape="125.82,55.18 126.30,51.34 127.40,49.43"/>
    </edge>
    <edge id=":gneJ3_12" function="internal">
        <lane id=":gneJ3_12_0" index="0" speed="8.06" length="8.22" shape="127.40,49.43 127.92,48.55 130.67,46.82 134.57,46.16"/>
    </edge>
    <edge id=":gneJ3_3" function="internal">
        <lane id=":gneJ3_3_0" index="0" speed="6.57" length="9.17" shape="134.66,49.36 132.15,49.78 130.37,50.88 129.33,52.66 129.02,55.12"/>
    </edge>
    <edge id=":gneJ3_4" function="internal">
        <lane id=":gneJ3_4_0" index="0" speed="13.89" length="14.55" shape="134.66,49.36 120.12,49.66"/>
    </edge>
    <edge id=":gneJ3_5" function="internal">
        <lane id=":gneJ3_5_0" index="0" speed="7.92" length="6.04" shape="134.66,49.36 130.73,48.91 128.92,47.88"/>
    </edge>
    <edge id=":gneJ3_13" function="internal">
        <lane id=":gneJ3_13_0" index="0" speed="7.92" length="8.33" shape="128.92,47.88 127.93,47.31 126.28,44.54 125.78,40.61"/>
    </edge>
    <edge id=":gneJ3_6" function="internal">
        <lane id=":gneJ3_6_0" index="0" speed="6.41" length="9.04" shape="128.98,40.66 129.30,43.13 130.33,44.87 132.09,45.88 134.57,46.16"/>
    </edge>
    <edge id=":gneJ3_7" function="internal">
        <lane id=":gneJ3_7_0" index="0" speed="13.89" length="14.46" shape="128.98,40.66 129.02,55.12"/>
    </edge>
    <edge id=":gneJ3_8" function="internal">
        <lane id=":gneJ3_8_0" index="0" speed="8.11" length="5.86" shape="128.98,40.66 128.38,44.56 127.39,46.20"/>
    </edge>
    <edge id=":gneJ3_14" function="internal">
        <lane id=":gneJ3_14_0" index="0" speed="8.11" length="8.46" shape="127.39,46.20 126.70,47.36 123.95,49.06 120.12,49.66"/>
    </edge>
    <edge id=":gneJ3_9" function="internal">
        <lane id=":gneJ3_9_0" index="0" speed="6.64" length="9.26" shape="120.08,46.46 122.54,46.07 124.31,44.97 125.39,43.15 125.78,40.61"/>
    </edge>
    <edge id=":gneJ3_10" function="internal">
        <lane id=":gneJ3_10_0" index="0" speed="13.89" length="14.49" shape="120.08,46.46 134.57,46.16"/>
    </edge>
    <edge id=":gneJ3_11" function="internal">
        <lane id=":gneJ3_11_0" index="0" speed="8.02" length="5.82" shape="120.08,46.46 123.92,46.96 125.61,47.94"/>
    </edge>
    <edge id=":gneJ3_15" function="internal">
        <lane id=":gneJ3_15_0" index="0" speed="8.02" length="8.33" shape="125.61,47.94 126.69,48.57 128.39,51.29 129.02,55.12"/>
    </edge>
    <edge id=":gneJ4_0" function="internal">
        <lane id=":gneJ4_0_0" index="0" speed="6.56" length="9.09" shape="88.14,14.67 85.66,15.02 83.88,16.07 82.79,17.81 82.41,20.25"/>
    </edge>
    <edge id=":gneJ4_1" function="internal">
        <lane id=":gneJ4_1_0" index="0" speed="13.89" length="14.54" shape="88.14,14.67 73.60,14.46"/>
    </edge>
    <edge id=":gneJ4_2" function="internal">
        <lane id=":gneJ4_2_0" index="0" speed="8.00" length="6.08" shape="88.14,14.67 84.27,14.12 82.41,12.99"/>
    </edge>
    <edge id=":gneJ4_12" function="internal">
        <lane id=":gneJ4_12_0" index="0" speed="8.00" length="8.18" shape="82.41,12.99 81.53,12.46 79.89,9.68 79.37,5.79"/>
    </edge>
    <edge id=":gneJ4_3" function="internal">
        <lane id=":gneJ4_3_0" index="0" speed="6.50" length="9.07" shape="82.57,5.82 82.90,8.29 83.94,10.06 85.68,11.12 88.14,11.47"/>
    </edge>
    <edge id=":gneJ4_4" function="internal">
        <lane id=":gneJ4_4_0" index="0" speed="13.89" length="14.43" shape="82.57,5.82 82.41,20.25"/>
    </edge>
    <edge id=":gneJ4_5" function="internal">
        <lane id=":gneJ4_5_0" index="0" speed="7.96" length="5.97" shape="82.57,5.82 81.98,9.70 80.90,11.44"/>
    </edge>
    <edge id=":gneJ4_13" function="internal">
        <lane id=":gneJ4_13_0" index="0" speed="7.96" length="8.30" shape="80.90,11.44 80.29,12.43 77.50,14.02 73.60,14.46"/>
    </edge>
    <edge id=":gneJ4_6" function="internal">
        <lane id=":gneJ4_6_0" index="0" speed="6.46" length="9.03" shape="73.69,11.26 76.16,10.98 77.93,9.98 79.00,8.25 79.37,5.79"/>
    </edge>
    <edge id=":gneJ4_7" function="internal">
        <lane id=":gneJ4_7_0" index="0" speed="13.89" length="14.45" shape="73.69,11.26 88.14,11.47"/>
    </edge>
    <edge id=":gneJ4_8" function="internal">
        <lane id=":gneJ4_8_0" index="0" speed="8.05" length="5.84" shape="73.69,11.26 77.55,11.92 79.18,12.94"/>
    </edge>
    <edge id=":gneJ4_14" function="internal">
        <lane id=":gneJ4_14_0" index="0" speed="8.05" length="8.39" shape="79.18,12.94 80.29,13.64 81.91,16.42 82.41,20.25"/>
    </edge>
    <edge id=":gneJ4_9" function="internal">
        <lane id=":gneJ4_9_0" index="0" speed="6.57" length="9.12" shape="79.21,20.21 78.89,17.76 77.84,15.98 76.08,14.88 73.60,14.46"/>
    </edge>
    <edge id=":gneJ4_10" function="internal">
        <lane id=":gneJ4_10_0" index="0" speed="13.89" length="14.41" shape="79.21,20.21 79.37,5.79"/>
    </edge>
    <edge id=":gneJ4_11" function="internal">
        <lane id=":gneJ4_11_0" index="0" speed="8.05" length="5.87" shape="79.21,20.21 79.81,16.39 80.87,14.68"/>
    </edge>
    <edge id=":gneJ4_15" function="internal">
        <lane id=":gneJ4_15_0" index="0" speed="8.05" length="8.32" shape="80.87,14.68 81.50,13.66 84.28,12.02 88.14,11.47"/>
    </edge>
    <edge id=":gneJ5_0" function="internal">
        <lane id=":gneJ5_0_0" index="0" speed="6.07" length="8.02" shape="34.84,15.17 35.11,12.97 36.02,11.42 37.58,10.52 39.78,10.27"/>
    </edge>
    <edge id=":gneJ5_1" function="internal">
        <lane id=":gneJ5_1_0" index="0" speed="3.90" length="2.67" shape="39.69,13.47 38.95,13.55 38.44,13.85 38.13,14.37 38.04,15.10"/>
    </edge>
    <edge id=":gneJ6_0" function="internal">
        <lane id=":gneJ6_0_0" index="0" speed="6.08" length="7.71" shape="40.32,86.58 38.23,86.27 36.74,85.37 35.85,83.87 35.55,81.78"/>
    </edge>
    <edge id=":gneJ6_1" function="internal">
        <lane id=":gneJ6_1_0" index="0" speed="3.90" length="2.57" shape="38.75,81.78 38.85,82.48 39.15,82.97 39.64,83.28 40.34,83.38"/>
    </edge>
    <edge id=":gneJ8_0" function="internal">
        <lane id=":gneJ8_0_0" index="0" speed="6.61" length="9.23" shape="79.40,92.50 79.02,90.01 77.93,88.23 76.13,87.15 73.64,86.78"/>
    </edge>
    <edge id=":gneJ8_1" function="internal">
        <lane id=":gneJ8_1_0" index="0" speed="13.89" length="14.52" shape="79.40,92.50 79.21,77.98"/>
    </edge>
    <edge id=":gneJ8_2" function="internal">
        <lane id=":gneJ8_2_0" index="0" speed="7.97" length="5.92" shape="79.40,92.50 79.91,88.62 80.93,86.89"/>
    </edge>
    <edge id=":gneJ8_12" function="internal">
        <lane id=":gneJ8_12_0" index="0" speed="7.97" length="8.34" shape="80.93,86.89 81.54,85.85 84.30,84.20 88.18,83.66"/>
    </edge>
    <edge id=":gneJ8_3" function="internal">
        <lane id=":gneJ8_3_0" index="0" speed="6.47" length="9.03" shape="88.16,86.86 85.70,87.20 83.96,88.25 82.92,90.00 82.60,92.46"/>
    </edge>
    <edge id=":gneJ8_4" function="internal">
        <lane id=":gneJ8_4_0" index="0" speed="13.89" length="14.52" shape="88.16,86.86 73.64,86.78"/>
    </edge>
    <edge id=":gneJ8_5" function="internal">
        <lane id=":gneJ8_5_0" index="0" speed="8.09" length="5.97" shape="88.16,86.86 84.29,86.29 82.53,85.23"/>
    </edge>
    <edge id=":gneJ8_13" function="internal">
        <lane id=":gneJ8_13_0" index="0" speed="8.09" length="8.35" shape="82.53,85.23 81.51,84.62 79.81,81.85 79.21,77.98"/>
    </edge>
    <edge id=":gneJ8_6" function="internal">
        <lane id=":gneJ8_6_0" index="0" speed="6.62" length="9.23" shape="82.41,77.94 82.80,80.43 83.89,82.22 85.68,83.29 88.18,83.66"/>
    </edge>
    <edge id=":gneJ8_7" function="internal">
        <lane id=":gneJ8_7_0" index="0" speed="13.89" length="14.53" shape="82.41,77.94 82.60,92.46"/>
    </edge>
    <edge id=":gneJ8_8" function="internal">
        <lane id=":gneJ8_8_0" index="0" speed="7.97" length="5.94" shape="82.41,77.94 81.91,81.83 80.88,83.57"/>
    </edge>
    <edge id=":gneJ8_14" function="internal">
        <lane id=":gneJ8_14_0" index="0" speed="7.97" length="8.33" shape="80.88,83.57 80.28,84.60 77.52,86.25 73.64,86.78"/>
    </edge>
    <edge id=":gneJ8_9" function="internal">
        <lane id=":gneJ8_9_0" index="0" speed="6.46" length="9.03" shape="73.66,83.58 76.11,83.24 77.86,82.20 78.89,80.44 79.21,77.98"/>
    </edge>
    <edge id=":gneJ8_10" function="internal">
        <lane id=":gneJ8_10_0" index="0" speed="13.89" length="14.52" shape="73.66,83.58 88.18,83.66"/>
    </edge>
    <edge id=":gneJ8_11" function="internal">
        <lane id=":gneJ8_11_0" index="0" speed="8.09" length="5.97" shape="73.66,83.58 77.53,84.15 79.29,85.21"/>
    </edge>
    <edge id=":gneJ8_15" function="internal">
        <lane id=":gneJ8_15_0" index="0" speed="8.09" length="8.35" shape="79.29,85.21 80.31,85.83 82.00,88.60 82.60,92.46"/>
    </edge>

    <edge id="gneE0" from="gneJ0" to="gneJ1" priority="-1">
        <lane id="gneE0_0" index="0" speed="13.89" length="25.25" shape="4.60,47.84 29.84,47.34"/>
    </edge>
    <edge id="gneE1" from="gneJ1" to="gneJ0" priority="-1">
        <lane id="gneE1_0" index="0" speed="13.89" length="25.25" shape="29.91,50.54 4.66,51.04"/>
    </edge>
    <edge id="gneE10" from="gneJ4" to="gneJ2" priority="-1">
        <lane id="gneE10_0" index="0" speed="13.89" length="20.99" shape="82.41,20.25 82.10,41.24"/>
    </edge>
    <edge id="gneE11" from="gneJ5" to="gneJ4" priority="-1">
        <lane id="gneE11_0" index="0" speed="13.89" length="33.93" shape="39.78,10.27 73.69,11.26"/>
    </edge>
    <edge id="gneE12" from="gneJ4" to="gneJ5" priority="-1">
        <lane id="gneE12_0" index="0" speed="13.89" length="33.93" shape="73.60,14.46 39.69,13.47"/>
    </edge>
    <edge id="gneE13" from="gneJ4" to="gneJ7" priority="-1">
        <lane id="gneE13_0" index="0" speed="13.89" length="25.81" shape="79.37,5.79 79.57,-20.02"/>
    </edge>
    <edge id="gneE14" from="gneJ7" to="gneJ4" priority="-1">
        <lane id="gneE14_0" index="0" speed="13.89" length="25.81" shape="82.77,-19.99 82.57,5.82"/>
    </edge>
    <edge id="gneE15" from="gneJ2" to="gneJ8" priority="-1">
        <lane id="gneE15_0" index="0" speed="13.89" length="22.25" shape="82.09,55.69 82.41,77.94"/>
    </edge>
    <edge id="gneE16" from="gneJ8" to="gneJ2" priority="-1">
        <lane id="gneE16_0" index="0" speed="13.89" length="22.25" shape="79.21,77.98 78.89,55.73"/>
    </edge>
    <edge id="gneE17" from="gneJ8" to="gneJ6" priority="-1">
        <lane id="gneE17_0" index="0" speed="13.89" length="33.32" shape="73.64,86.78 40.32,86.58"/>
    </edge>
    <edge id="gneE18" from="gneJ6" to="gneJ8" priority="-1">
        <lane id="gneE18_0" index="0" speed="13.89" length="33.32" shape="40.34,83.38 73.66,83.58"/>
    </edge>
    <edge id="gneE19" from="gneJ3" to="gneJ9" priority="-1">
        <lane id="gneE19_0" index="0" speed="13.89" length="27.05" shape="134.57,46.16 161.60,45.34"/>
    </edge>
    <edge id="gneE2" from="gneJ2" to="gneJ1" priority="-1">
        <lane id="gneE2_0" index="0" speed="13.89" length="28.90" shape="73.22,50.15 44.33,50.34"/>
    </edge>
    <edge id="gneE20" from="gneJ3" to="gneJ2" priority="-1">
        <lane id="gneE20_0" index="0" speed="13.89" length="32.43" shape="120.12,49.66 87.69,50.02"/>
    </edge>
    <edge id="gneE21" from="gneJ8" to="gneJ10" priority="-1">
        <lane id="gneE21_0" index="0" speed="13.89" length="36.60" shape="88.18,83.66 124.77,83.86"/>
    </edge>
    <edge id="gneE22" from="gneJ10" to="gneJ8" priority="-1">
        <lane id="gneE22_0" index="0" speed="13.89" length="36.60" shape="124.76,87.06 88.16,86.86"/>
    </edge>
    <edge id="gneE23" from="gneJ8" to="gneJ11" priority="-1">
        <lane id="gneE23_0" index="0" speed="13.89" length="33.90" shape="82.60,92.46 83.03,126.36"/>
    </edge>
    <edge id="gneE24" from="gneJ11" to="gneJ8" priority="-1">
        <lane id="gneE24_0" index="0" speed="13.89" length="33.90" shape="79.83,126.40 79.40,92.50"/>
    </edge>
    <edge id="gneE25" from="gneJ10" to="gneJ3" priority="-1">
        <lane id="gneE25_0" index="0" speed="13.89" length="27.05" shape="126.38,82.23 125.82,55.18"/>
    </edge>
    <edge id="gneE26" from="gneJ3" to="gneJ10" priority="-1">
        <lane id="gneE26_0" index="0" speed="13.89" length="27.05" shape="129.02,55.12 129.58,82.16"/>
    </edge>
    <edge id="gneE27" from="gneJ3" to="gneJ12" priority="-1">
        <lane id="gneE27_0" index="0" speed="13.89" length="24.32" shape="125.78,40.61 126.14,16.29"/>
    </edge>
    <edge id="gneE28" from="gneJ12" to="gneJ4" priority="-1">
        <lane id="gneE28_0" index="0" speed="13.89" length="36.41" shape="124.54,14.67 88.14,14.67"/>
    </edge>
    <edge id="gneE29" from="gneJ4" to="gneJ12" priority="-1">
        <lane id="gneE29_0" index="0" speed="13.89" length="36.41" shape="88.14,11.47 124.54,11.47"/>
    </edge>
    <edge id="gneE3" from="gneJ2" to="gneJ3" priority="-1">
        <lane id="gneE3_0" index="0" speed="13.89" length="32.43" shape="87.66,46.82 120.08,46.46"/>
    </edge>
    <edge id="gneE30" from="gneJ12" to="gneJ3" priority="-1">
        <lane id="gneE30_0" index="0" speed="13.89" length="24.32" shape="129.34,16.34 128.98,40.66"/>
    </edge>
    <edge id="gneE31" from="gneJ9" to="gneJ3" priority="-1">
        <lane id="gneE31_0" index="0" speed="13.89" length="27.05" shape="161.70,48.54 134.66,49.36"/>
    </edge>
    <edge id="gneE4" from="gneJ1" to="gneJ2" priority="-1">
        <lane id="gneE4_0" index="0" speed="13.89" length="28.90" shape="44.30,47.14 73.20,46.95"/>
    </edge>
    <edge id="gneE5" from="gneJ2" to="gneJ4" priority="-1">
        <lane id="gneE5_0" index="0" speed="13.89" length="20.99" shape="78.90,41.19 79.21,20.21"/>
    </edge>
    <edge id="gneE6" from="gneJ1" to="gneJ5" priority="-1">
        <lane id="gneE6_0" index="0" speed="13.89" length="26.46" shape="35.39,41.62 34.84,15.17"/>
    </edge>
    <edge id="gneE7" from="gneJ1" to="gneJ6" priority="-1">
        <lane id="gneE7_0" index="0" speed="13.89" length="25.73" shape="38.74,56.05 38.75,81.78"/>
    </edge>
    <edge id="gneE8" from="gneJ6" to="gneJ1" priority="-1">
        <lane id="gneE8_0" index="0" speed="13.89" length="25.73" shape="35.55,81.78 35.54,56.06"/>
    </edge>
    <edge id="gneE9" from="gneJ5" to="gneJ1" priority="-1">
        <lane id="gneE9_0" index="0" speed="13.89" length="26.46" shape="38.04,15.10 38.59,41.56"/>
    </edge>

    <tlLogic id="gneJ1" type="static" programID="0" offset="0">
        <phase duration="42" state="rrrGGgrrrGGg"/>
        <phase duration="3"  state="rrryyyrrryyy"/>
        <phase duration="42" state="GGgrrrGGgrrr"/>
        <phase duration="3"  state="yyyrrryyyrrr"/>
    </tlLogic>
    <tlLogic id="gneJ2" type="static" programID="0" offset="0">
        <phase duration="42" state="rrrGGgrrrGGg"/>
        <phase duration="3"  state="rrryyyrrryyy"/>
        <phase duration="42" state="GGgrrrGGgrrr"/>
        <phase duration="3"  state="yyyrrryyyrrr"/>
    </tlLogic>
    <tlLogic id="gneJ3" type="static" programID="0" offset="0">
        <phase duration="42" state="rrrGGgrrrGGg"/>
        <phase duration="3"  state="rrryyyrrryyy"/>
        <phase duration="42" state="GGgrrrGGgrrr"/>
        <phase duration="3"  state="yyyrrryyyrrr"/>
    </tlLogic>
    <tlLogic id="gneJ4" type="static" programID="0" offset="0">
        <phase duration="42" state="rrrGGgrrrGGg"/>
        <phase duration="3"  state="rrryyyrrryyy"/>
        <phase duration="42" state="GGgrrrGGgrrr"/>
        <phase duration="3"  state="yyyrrryyyrrr"/>
    </tlLogic>
    <tlLogic id="gneJ8" type="static" programID="0" offset="0">
        <phase duration="42" state="rrrGGgrrrGGg"/>
        <phase duration="3"  state="rrryyyrrryyy"/>
        <phase duration="42" state="GGgrrrGGgrrr"/>
        <phase duration="3"  state="yyyrrryyyrrr"/>
    </tlLogic>

    <junction id="gneJ0" type="dead_end" x="4.63" y="49.44" incLanes="gneE1_0" intLanes="" shape="4.63,49.44 4.69,52.64 4.63,49.44"/>
    <junction id="gneJ1" type="traffic_light" x="37.13" y="48.79" incLanes="gneE8_0 gneE2_0 gneE9_0 gneE0_0" intLanes=":gneJ1_0_0 :gneJ1_1_0 :gneJ1_12_0 :gneJ1_3_0 :gneJ1_4_0 :gneJ1_13_0 :gneJ1_6_0 :gneJ1_7_0 :gneJ1_14_0 :gneJ1_9_0 :gneJ1_10_0 :gneJ1_15_0" shape="33.94,56.06 40.34,56.05 40.78,53.78 41.34,52.98 42.11,52.41 43.11,52.06 44.34,51.94 44.29,45.54 42.05,45.11 41.25,44.55 40.68,43.77 40.32,42.76 40.19,41.52 33.79,41.66 33.38,43.89 32.83,44.68 32.06,45.25 31.05,45.60 29.81,45.74 29.94,52.14 32.16,52.54 32.94,53.08 33.49,53.84 33.83,54.84">
        <request index="0"  response="000000010000" foes="000100010000" cont="0"/>
        <request index="1"  response="111000110000" foes="111100110000" cont="0"/>
        <request index="2"  response="110011110000" foes="110011110000" cont="1"/>
        <request index="3"  response="000000000000" foes="100010000000" cont="0"/>
        <request index="4"  response="000100000100" foes="100110000111" cont="0"/>
        <request index="5"  response="011100000100" foes="011110000110" cont="1"/>
        <request index="6"  response="010000000000" foes="010000000100" cont="0"/>
        <request index="7"  response="110000111000" foes="110000111100" cont="0"/>
        <request index="8"  response="110000110011" foes="110000110011" cont="1"/>
        <request index="9"  response="000000000000" foes="000000100010" cont="0"/>
        <request index="10" response="000100000100" foes="000111100110" cont="0"/>
        <request index="11" response="000100011100" foes="000110011110" cont="1"/>
    </junction>
    <junction id="gneJ10" type="priority" x="128.05" y="85.48" incLanes="gneE26_0 gneE21_0" intLanes=":gneJ10_0_0 :gneJ10_1_0" shape="131.18,82.13 124.78,82.26 124.75,88.66 126.75,88.49 128.38,87.95 129.64,87.05 130.53,85.77 131.04,84.14">
        <request index="0" response="00" foes="00" cont="0"/>
        <request index="1" response="00" foes="00" cont="0"/>
    </junction>
    <junction id="gneJ11" type="dead_end" x="81.43" y="126.38" incLanes="gneE23_0" intLanes="" shape="81.43,126.38 84.63,126.34 81.43,126.38"/>
    <junction id="gneJ12" type="priority" x="127.79" y="13.07" incLanes="gneE29_0 gneE27_0" intLanes=":gneJ12_0_0 :gneJ12_1_0" shape="124.54,9.87 124.54,16.27 130.94,16.37 130.27,12.76 129.39,11.49 128.14,10.59 126.52,10.05">
        <request index="0" response="00" foes="00" cont="0"/>
        <request index="1" response="00" foes="00" cont="0"/>
    </junction>
    <junction id="gneJ2" type="traffic_light" x="80.39" y="48.50" incLanes="gneE16_0 gneE20_0 gneE10_0 gneE4_0" intLanes=":gneJ2_0_0 :gneJ2_1_0 :gneJ2_12_0 :gneJ2_3_0 :gneJ2_4_0 :gneJ2_13_0 :gneJ2_6_0 :gneJ2_7_0 :gneJ2_14_0 :gneJ2_9_0 :gneJ2_10_0 :gneJ2_15_0" shape="77.29,55.75 83.69,55.66 84.11,53.44 84.67,52.65 85.45,52.09 86.47,51.74 87.71,51.62 87.64,45.22 85.42,44.80 84.65,44.25 84.11,43.48 83.79,42.49 83.70,41.26 77.30,41.17 76.81,43.48 76.24,44.29 75.45,44.87 74.43,45.22 73.19,45.35 73.24,51.75 75.46,52.18 76.25,52.74 76.82,53.52 77.16,54.52">
        <request index="0"  response="000000010000" foes="000100010000" cont="0"/>
        <request index="1"  response="111000110000" foes="111100110000" cont="0"/>
        <request index="2"  response="110011110000" foes="110011110000" cont="1"/>
        <request index="3"  response="000000000000" foes="100010000000" cont="0"/>
        <request index="4"  response="000100000100" foes="100110000111" cont="0"/>
        <request index="5"  response="011100000100" foes="011110000110" cont="1"/>
        <request index="6"  response="010000000000" foes="010000000100" cont="0"/>
        <request index="7"  response="110000111000" foes="110000111100" cont="0"/>
        <request index="8"  response="110000110011" foes="110000110011" cont="1"/>
        <request index="9"  response="000000000000" foes="000000100010" cont="0"/>
        <request index="10" response="000100000100" foes="000111100110" cont="0"/>
        <request index="11" response="000100011100" foes="000110011110" cont="1"/>
    </junction>
    <junction id="gneJ3" type="traffic_light" x="127.27" y="47.98" incLanes="gneE25_0 gneE31_0 gneE30_0 gneE3_0" intLanes=":gneJ3_0_0 :gneJ3_1_0 :gneJ3_12_0 :gneJ3_3_0 :gneJ3_4_0 :gneJ3_13_0 :gneJ3_6_0 :gneJ3_7_0 :gneJ3_14_0 :gneJ3_9_0 :gneJ3_10_0 :gneJ3_15_0" shape="124.22,55.21 130.62,55.08 131.04,52.85 131.60,52.05 132.40,51.47 133.44,51.11 134.71,50.96 134.52,44.56 132.30,44.18 131.53,43.65 130.99,42.89 130.67,41.90 130.58,40.68 124.18,40.59 123.69,42.94 123.12,43.77 122.32,44.36 121.31,44.73 120.07,44.86 120.14,51.26 122.37,51.68 123.16,52.23 123.73,53.00 124.08,53.99">
        <request index="0"  response="000000010000" foes="000100010000" cont="0"/>
        <request index="1"  response="111000110000" foes="111100110000" cont="0"/>
        <request index="2"  response="110011110000" foes="110011110000" cont="1"/>
        <request index="3"  response="000000000000" foes="100010000000" cont="0"/>
        <request index="4"  response="000100000100" foes="100110000111" cont="0"/>
        <request index="5"  response="011100000100" foes="011110000110" cont="1"/>
        <request index="6"  response="010000000000" foes="010000000100" cont="0"/>
        <request index="7"  response="110000111000" foes="110000111100" cont="0"/>
        <request index="8"  response="110000110011" foes="110000110011" cont="1"/>
        <request index="9"  response="000000000000" foes="000000100010" cont="0"/>