<?xml version="1.0" encoding="UTF-8"?>

<!-- generated on 08/04/21 10:35:40 by Eclipse SUMO netedit Version 1.8.0
<configuration xmlns:xsi="http://www.w3.org/2001/XMLSchema-instance" xsi:noNamespaceSchemaLocation="http://sumo.dlr.de/xsd/netconvertConfiguration.xsd">

    <input>
        <sumo-net-file value="C:\Users\Local_Man\Desktop\Stolen%20Music\school%20stuff%20for%20college\RESEARCH\coding\SUMO\Selfless-Traffic-Routing-Testbed-master\configurations\local_man2_heb.net.xml"/>
    </input>

    <output>
        <output-file value="C:\Users\Local_Man\Desktop\Stolen%20Music\school%20stuff%20for%20college\RESEARCH\coding\SUMO\Selfless-Traffic-Routing-Testbed-master\configurations\local_man2_heb.net.xml"/>
        <output.street-names value="true"/>
    </output>

    <processing>
        <geometry.min-radius.fix.railways value="false"/>
        <geometry.max-grade.fix value="false"/>
        <offset.disable-normalization value="true"/>
        <lefthand value="false"/>
    </processing>

    <junctions>
        <no-turnarounds value="true"/>
        <junctions.corner-detail value="5"/>
        <junctions.limit-turn-speed value="5.5"/>
        <rectangular-lane-cut value="false"/>
    </junctions>

    <pedestrian>
        <walkingareas value="false"/>
    </pedestrian>

    <report>
        <aggregate-warnings value="5"/>
    </report>

</configuration>
-->

<net version="1.6" junctionCornerDetail="5" limitTurnSpeed="5.50" xmlns:xsi="http://www.w3.org/2001/XMLSchema-instance" xsi:noNamespaceSchemaLocation="http://sumo.dlr.de/xsd/net_file.xsd">

    <location netOffset="-244492.54,-3272142.57" convBoundary="0.00,1189.99,9547.79,5316.86" origBoundary="-95.639720,29.551610,-95.538906,29.629596" projParameter="+proj=utm +zone=15 +ellps=WGS84 +datum=WGS84 +units=m +no_defs"/>

    <type id="highway.bridleway" priority="1" numLanes="1" speed="2.78" allow="pedestrian" oneway="1" width="2.00"/>
    <type id="highway.bus_guideway" priority="1" numLanes="1" speed="27.78" allow="bus" oneway="1"/>
    <type id="highway.cycleway" priority="1" numLanes="1" speed="8.33" allow="bicycle" oneway="1" width="1.00"/>
    <type id="highway.footway" priority="1" numLanes="1" speed="2.78" allow="pedestrian" oneway="1" width="2.00"/>
    <type id="highway.ford" priority="1" numLanes="1" speed="2.78" allow="army" oneway="1"/>
    <type id="highway.living_street" priority="2" numLanes="1" speed="2.78" disallow="tram rail_urban rail rail_electric rail_fast ship" oneway="1"/>
    <type id="highway.motorway" priority="14" numLanes="2" speed="39.44" allow="private emergency authority army vip passenger hov taxi bus coach delivery truck trailer motorcycle evehicle custom1 custom2" oneway="1"/>
    <type id="highway.motorway_link" priority="9" numLanes="1" speed="22.22" allow="private emergency authority army vip passenger hov taxi bus coach delivery truck trailer motorcycle evehicle custom1 custom2" oneway="1"/>
    <type id="highway.path" priority="1" numLanes="1" speed="2.78" allow="pedestrian bicycle" oneway="1" width="2.00"/>
    <type id="highway.pedestrian" priority="1" numLanes="1" speed="2.78" allow="pedestrian" oneway="1" width="2.00"/>
    <type id="highway.primary" priority="12" numLanes="2" speed="27.78" disallow="tram rail_urban rail rail_electric rail_fast ship" oneway="1"/>
    <type id="highway.primary_link" priority="7" numLanes="1" speed="22.22" disallow="tram rail_urban rail rail_electric rail_fast ship" oneway="1"/>
    <type id="highway.raceway" priority="15" numLanes="2" speed="83.33" allow="vip" oneway="1"/>
    <type id="highway.residential" priority="3" numLanes="1" speed="13.89" disallow="tram rail_urban rail rail_electric rail_fast ship" oneway="1"/>
    <type id="highway.secondary" priority="11" numLanes="1" speed="27.78" disallow="tram rail_urban rail rail_electric rail_fast ship" oneway="1"/>
    <type id="highway.secondary_link" priority="6" numLanes="1" speed="22.22" disallow="tram rail_urban rail rail_electric rail_fast ship" oneway="1"/>
    <type id="highway.service" priority="1" numLanes="1" speed="5.56" allow="pedestrian delivery bicycle" oneway="1"/>
    <type id="highway.stairs" priority="1" numLanes="1" speed="1.39" allow="pedestrian" oneway="1" width="2.00"/>
    <type id="highway.step" priority="1" numLanes="1" speed="1.39" allow="pedestrian" oneway="1" width="2.00"/>
    <type id="highway.steps" priority="1" numLanes="1" speed="1.39" allow="pedestrian" oneway="1" width="2.00"/>
    <type id="highway.tertiary" priority="10" numLanes="1" speed="22.22" disallow="tram rail_urban rail rail_electric rail_fast ship" oneway="1"/>
    <type id="highway.tertiary_link" priority="5" numLanes="1" speed="22.22" disallow="tram rail_urban rail rail_electric rail_fast ship" oneway="1"/>
    <type id="highway.track" priority="1" numLanes="1" speed="5.56" allow="pedestrian motorcycle moped bicycle" oneway="1"/>
    <type id="highway.trunk" priority="13" numLanes="2" speed="27.78" disallow="pedestrian bicycle tram rail_urban rail rail_electric rail_fast ship" oneway="1"/>
    <type id="highway.trunk_link" priority="8" numLanes="1" speed="22.22" disallow="pedestrian bicycle tram rail_urban rail rail_electric rail_fast ship" oneway="1"/>
    <type id="highway.unclassified" priority="4" numLanes="1" speed="13.89" disallow="tram rail_urban rail rail_electric rail_fast ship" oneway="1"/>
    <type id="highway.unsurfaced" priority="1" numLanes="1" speed="8.33" disallow="tram rail_urban rail rail_electric rail_fast ship" oneway="1"/>
    <type id="railway.highspeed" priority="21" numLanes="1" speed="69.44" allow="rail_fast" oneway="1"/>
    <type id="railway.light_rail" priority="19" numLanes="1" speed="27.78" allow="rail_urban" oneway="1"/>
    <type id="railway.preserved" priority="16" numLanes="1" speed="27.78" allow="rail" oneway="1"/>
    <type id="railway.rail" priority="20" numLanes="1" speed="44.44" allow="rail" oneway="1"/>
    <type id="railway.subway" priority="18" numLanes="1" speed="27.78" allow="rail_urban" oneway="1"/>
    <type id="railway.tram" priority="17" numLanes="1" speed="13.89" allow="tram" oneway="1"/>

    <edge id=":2115200338_0" function="internal">
        <lane id=":2115200338_0_0" index="0" allow="pedestrian delivery bicycle" speed="3.65" length="4.67" shape="5865.63,2632.31 5867.07,2632.26 5867.87,2632.67 5868.01,2633.55 5867.51,2634.91"/>
    </edge>
    <edge id=":2195112262_0" function="internal">
        <lane id=":2195112262_0_0" index="0" disallow="tram rail_urban rail rail_electric rail_fast ship" speed="27.78" length="5.65" shape="3783.25,4002.69 3788.71,4000.77"/>
        <lane id=":2195112262_0_1" index="1" disallow="tram rail_urban rail rail_electric rail_fast ship" speed="27.78" length="5.65" shape="3784.55,4005.61 3789.76,4003.79"/>
    </edge>
    <edge id=":2195112262_2" function="internal">
        <lane id=":2195112262_2_0" index="0" disallow="tram rail_urban rail rail_electric rail_fast ship" speed="10.43" length="4.72" shape="3785.85,4008.53 3787.13,4007.95 3788.04,4007.61 3788.99,4007.48 3790.37,4007.54"/>
    </edge>
    <edge id=":2195112263_0" function="internal">
        <lane id=":2195112263_0_0" index="0" allow="pedestrian delivery bicycle" speed="13.89" length="13.07" shape="3833.86,3994.26 3831.35,3991.88 3829.13,3989.70 3827.14,3987.36 3825.30,3984.47"/>
    </edge>
    <edge id=":2195112263_1" function="internal">
        <lane id=":2195112263_1_0" index="0" disallow="tram rail_urban rail rail_electric rail_fast ship" speed="5.84" length="9.17" shape="3833.86,3994.26 3832.32,3992.22 3832.09,3990.38 3833.18,3988.75 3835.58,3987.32"/>
    </edge>
    <edge id=":2195112263_2" function="internal">
        <lane id=":2195112263_2_0" index="0" allow="pedestrian delivery bicycle" speed="6.04" length="7.11" shape="3828.10,3982.93 3829.18,3984.28 3830.57,3984.97 3832.28,3985.01 3834.31,3984.38"/>
    </edge>
    <edge id=":2195112263_3" function="internal">
        <lane id=":2195112263_3_0" index="0" allow="pedestrian delivery bicycle" speed="3.65" length="4.67" shape="3828.10,3982.93 3827.98,3984.37 3827.47,3985.11 3826.57,3985.14 3825.30,3984.47"/>
    </edge>
    <edge id=":2195112263_4" function="internal">
        <lane id=":2195112263_4_0" index="0" allow="pedestrian delivery bicycle" speed="4.88" length="5.21" shape="3823.72,3988.56 3825.02,3987.88 3825.71,3986.98 3825.81,3985.84 3825.30,3984.47"/>
    </edge>
    <edge id=":2195112263_5" function="internal">
        <lane id=":2195112263_5_0" index="0" disallow="tram rail_urban rail rail_electric rail_fast ship" speed="27.78" length="11.50" shape="3823.72,3988.56 3834.31,3984.38"/>
        <lane id=":2195112263_5_1" index="1" disallow="tram rail_urban rail rail_electric rail_fast ship" speed="27.78" length="11.50" shape="3824.78,3991.58 3835.58,3987.32"/>
    </edge>
    <edge id=":2195112274_0" function="internal">
        <lane id=":2195112274_0_0" index="0" allow="pedestrian delivery bicycle" speed="4.99" length="5.06" shape="3680.88,4091.25 3680.17,4090.05 3679.26,4089.38 3678.13,4089.25 3676.79,4089.65"/>
    </edge>
    <edge id=":2195112274_1" function="internal">
        <lane id=":2195112274_1_0" index="0" allow="pedestrian delivery bicycle" speed="6.03" length="7.90" shape="3680.88,4091.25 3679.63,4088.75 3678.31,4087.17 3676.91,4086.50 3675.44,4086.76"/>
    </edge>
    <edge id=":2195112274_2" function="internal">
        <lane id=":2195112274_2_0" index="0" allow="pedestrian delivery bicycle" speed="3.65" length="4.67" shape="3680.88,4091.25 3681.17,4089.84 3681.76,4089.17 3682.65,4089.24 3683.84,4090.05"/>
    </edge>
    <edge id=":2195112274_3" function="internal">
        <lane id=":2195112274_3_0" index="0" allow="pedestrian delivery bicycle" speed="6.66" length="9.32" shape="3683.42,4081.38 3682.46,4082.35 3682.20,4084.12 3682.67,4086.68 3683.84,4090.05"/>
    </edge>
    <edge id=":2195112274_4" function="internal">
        <lane id=":2195112274_4_0" index="0" disallow="tram rail_urban rail rail_electric rail_fast ship" speed="27.78" length="11.06" shape="3683.42,4081.38 3681.01,4083.25 3680.08,4085.47 3679.17,4087.71 3676.79,4089.65"/>
        <lane id=":2195112274_4_1" index="1" disallow="tram rail_urban rail rail_electric rail_fast ship" speed="27.78" length="11.06" shape="3682.14,4078.44 3679.71,4080.32 3678.77,4082.55 3677.84,4084.80 3675.44,4086.76"/>
        <lane id=":2195112274_4_2" index="2" disallow="tram rail_urban rail rail_electric rail_fast ship" speed="27.78" length="11.06" shape="3680.86,4075.51 3678.41,4077.40 3677.45,4079.63 3676.50,4081.89 3674.08,4083.86"/>
        <lane id=":2195112274_4_3" index="3" disallow="tram rail_urban rail rail_electric rail_fast ship" speed="27.78" length="11.06" shape="3679.59,4072.58 3677.11,4074.48 3676.13,4076.72 3675.17,4078.98 3672.73,4080.96"/>
    </edge>
    <edge id=":2195112275_0" function="internal">
        <lane id=":2195112275_0_0" index="0" allow="pedestrian delivery bicycle" speed="5.10" length="5.06" shape="3759.72,4049.80 3758.96,4048.62 3758.02,4047.95 3756.89,4047.79 3755.58,4048.14"/>
    </edge>
    <edge id=":2195112275_1" function="internal">
        <lane id=":2195112275_1_0" index="0" allow="pedestrian delivery bicycle" speed="3.65" length="4.67" shape="3759.72,4049.80 3759.94,4048.38 3760.50,4047.68 3761.40,4047.71 3762.63,4048.46"/>
    </edge>
    <edge id=":2195112275_2" function="internal">
        <lane id=":2195112275_2_0" index="0" allow="pedestrian delivery bicycle" speed="5.03" length="5.02" shape="3764.17,4044.36 3763.01,4045.09 3762.36,4046.02 3762.23,4047.14 3762.63,4048.46"/>
    </edge>
    <edge id=":2195112275_3" function="internal">
        <lane id=":2195112275_3_0" index="0" disallow="tram rail_urban rail rail_electric rail_fast ship" speed="27.78" length="9.37" shape="3764.17,4044.36 3755.58,4048.14"/>
        <lane id=":2195112275_3_1" index="1" disallow="tram rail_urban rail rail_electric rail_fast ship" speed="27.78" length="9.37" shape="3762.87,4041.44 3754.30,4045.21"/>
        <lane id=":2195112275_3_2" index="2" disallow="tram rail_urban rail rail_electric rail_fast ship" speed="27.78" length="9.37" shape="3761.57,4038.51 3753.02,4042.28"/>
    </edge>
    <edge id=":2195112276_0" function="internal">
        <lane id=":2195112276_0_0" index="0" allow="pedestrian delivery bicycle" speed="6.11" length="7.69" shape="3831.12,4018.65 3830.10,4017.33 3828.63,4016.72 3826.71,4016.82 3824.33,4017.62"/>
    </edge>
    <edge id=":2195112276_1" function="internal">
        <lane id=":2195112276_1_0" index="0" allow="pedestrian delivery bicycle" speed="3.65" length="4.67" shape="3831.12,4018.65 3831.33,4017.22 3831.88,4016.51 3832.77,4016.53 3834.01,4017.27"/>
    </edge>
    <edge id=":2195112276_2" function="internal">
        <lane id=":2195112276_2_0" index="0" allow="pedestrian delivery bicycle" speed="4.89" length="5.19" shape="3835.79,4013.27 3834.47,4013.88 3833.73,4014.75 3833.58,4015.88 3834.01,4017.27"/>
    </edge>
    <edge id=":2195112276_3" function="internal">
        <lane id=":2195112276_3_0" index="0" disallow="tram rail_urban rail rail_electric rail_fast ship" speed="27.78" length="12.68" shape="3835.79,4013.27 3832.31,4014.34 3829.96,4015.17 3827.66,4016.14 3824.33,4017.62"/>
        <lane id=":2195112276_3_1" index="1" disallow="tram rail_urban rail rail_electric rail_fast ship" speed="27.78" length="12.68" shape="3834.87,4010.20 3831.28,4011.31 3828.85,4012.16 3826.47,4013.16 3823.03,4014.70"/>
        <lane id=":2195112276_3_2" index="2" disallow="tram rail_urban rail rail_electric rail_fast ship" speed="27.78" length="12.68" shape="3833.96,4007.13 3830.25,4008.28 3827.74,4009.16 3825.28,4010.19 3821.73,4011.77"/>
    </edge>
    <edge id=":2195112276_6" function="internal">
        <lane id=":2195112276_6_0" index="0" allow="pedestrian delivery bicycle" speed="13.89" length="16.66" shape="3822.86,4005.14 3826.10,4007.49 3829.23,4010.48 3831.96,4013.83 3834.01,4017.27"/>
    </edge>
    <edge id=":2195112276_7" function="internal">
        <lane id=":2195112276_7_0" index="0" disallow="tram rail_urban rail rail_electric rail_fast ship" speed="5.65" length="9.59" shape="3822.86,4005.14 3824.98,4006.88 3825.50,4008.56 3824.42,4010.20 3821.73,4011.77"/>
    </edge>
    <edge id=":2195112278_0" function="internal">
        <lane id=":2195112278_0_0" index="0" allow="pedestrian delivery bicycle" speed="5.31" length="5.33" shape="3909.49,3983.24 3908.59,3981.97 3907.56,3981.24 3906.40,3981.05 3905.10,3981.39"/>
    </edge>
    <edge id=":2195112278_1" function="internal">
        <lane id=":2195112278_1_0" index="0" allow="pedestrian delivery bicycle" speed="3.65" length="4.67" shape="3909.49,3983.24 3909.62,3981.80 3910.13,3981.06 3911.03,3981.03 3912.30,3981.70"/>
    </edge>
    <edge id=":2195112278_2" function="internal">
        <lane id=":2195112278_2_0" index="0" allow="pedestrian delivery bicycle" speed="4.96" length="5.10" shape="3913.71,3977.55 3912.51,3978.30 3911.88,3979.24 3911.81,3980.38 3912.30,3981.70"/>
    </edge>
    <edge id=":2195112278_3" function="internal">
        <lane id=":2195112278_3_0" index="0" disallow="tram rail_urban rail rail_electric rail_fast ship" speed="27.78" length="9.43" shape="3913.71,3977.55 3905.10,3981.39"/>
        <lane id=":2195112278_3_1" index="1" disallow="tram rail_urban rail rail_electric rail_fast ship" speed="27.78" length="9.43" shape="3912.40,3974.62 3903.80,3978.47"/>
        <lane id=":2195112278_3_2" index="2" disallow="tram rail_urban rail rail_electric rail_fast ship" speed="27.78" length="9.43" shape="3911.10,3971.70 3902.49,3975.55"/>
    </edge>
    <edge id=":2195112281_0" function="internal">
        <lane id=":2195112281_0_0" index="0" allow="pedestrian delivery bicycle" speed="5.46" length="5.62" shape="3818.99,3972.94 3818.06,3971.65 3816.97,3970.92 3815.72,3970.73 3814.32,3971.10"/>
    </edge>
    <edge id=":2195112281_1" function="internal">
        <lane id=":2195112281_1_0" index="0" allow="pedestrian delivery bicycle" speed="5.56" length="9.87" shape="3818.99,3972.94 3817.59,3970.37 3816.67,3968.58 3815.83,3966.76 3814.67,3964.07"/>
    </edge>
    <edge id=":2195112281_2" function="internal">
        <lane id=":2195112281_2_0" index="0" allow="pedestrian delivery bicycle" speed="5.56" length="10.64" shape="3818.99,3972.94 3817.96,3970.17 3818.11,3967.81 3819.45,3965.86 3821.97,3964.32"/>
    </edge>
    <edge id=":2195112281_3" function="internal">
        <lane id=":2195112281_3_0" index="0" allow="pedestrian delivery bicycle" speed="3.65" length="4.67" shape="3818.99,3972.94 3819.12,3971.50 3819.63,3970.77 3820.52,3970.74 3821.80,3971.40"/>
    </edge>
    <edge id=":2195112281_4" function="internal">
        <lane id=":2195112281_4_0" index="0" allow="pedestrian delivery bicycle" speed="4.94" length="5.12" shape="3823.23,3967.26 3822.02,3968.00 3821.38,3968.94 3821.30,3970.07 3821.80,3971.40"/>
    </edge>
    <edge id=":2195112281_5" function="internal">
        <lane id=":2195112281_5_0" index="0" allow="pedestrian delivery bicycle" speed="5.56" length="9.70" shape="3823.23,3967.26 3814.32,3971.10"/>
    </edge>
    <edge id=":2195112281_6" function="internal">
        <lane id=":2195112281_6_0" index="0" allow="pedestrian delivery bicycle" speed="5.56" length="10.42" shape="3823.23,3967.26 3820.42,3968.04 3818.05,3967.77 3816.13,3966.45 3814.67,3964.07"/>
    </edge>
    <edge id=":2195112281_7" function="internal">
        <lane id=":2195112281_7_0" index="0" allow="pedestrian delivery bicycle" speed="3.65" length="4.67" shape="3823.23,3967.26 3821.81,3967.00 3821.13,3966.42 3821.18,3965.53 3821.97,3964.32"/>
    </edge>
    <edge id=":2195112281_8" function="internal">
        <lane id=":2195112281_8_0" index="0" allow="pedestrian delivery bicycle" speed="5.14" length="5.26" shape="3817.61,3962.81 3818.34,3963.98 3819.31,3964.62 3820.52,3964.73 3821.97,3964.32"/>
    </edge>
    <edge id=":2195112281_9" function="internal">
        <lane id=":2195112281_9_0" index="0" allow="pedestrian delivery bicycle" speed="5.56" length="9.56" shape="3817.61,3962.81 3818.74,3965.42 3819.55,3967.18 3820.44,3968.91 3821.80,3971.40"/>
    </edge>
    <edge id=":2195112281_10" function="internal">
        <lane id=":2195112281_10_0" index="0" allow="pedestrian delivery bicycle" speed="5.56" length="10.16" shape="3817.61,3962.81 3818.33,3965.50 3818.03,3967.78 3816.69,3969.65 3814.32,3971.10"/>
    </edge>
    <edge id=":2195112281_11" function="internal">
        <lane id=":2195112281_11_0" index="0" allow="pedestrian delivery bicycle" speed="3.65" length="4.67" shape="3817.61,3962.81 3817.35,3964.23 3816.77,3964.92 3815.88,3964.86 3814.67,3964.07"/>
    </edge>
    <edge id=":2195112281_12" function="internal">
        <lane id=":2195112281_12_0" index="0" allow="pedestrian delivery bicycle" speed="5.05" length="5.01" shape="3813.05,3968.16 3814.22,3967.44 3814.88,3966.52 3815.03,3965.40 3814.67,3964.07"/>
    </edge>
    <edge id=":2195112281_13" function="internal">
        <lane id=":2195112281_13_0" index="0" allow="pedestrian delivery bicycle" speed="5.56" length="9.71" shape="3813.05,3968.16 3821.97,3964.32"/>
    </edge>
    <edge id=":2195112281_14" function="internal">
        <lane id=":2195112281_14_0" index="0" allow="pedestrian delivery bicycle" speed="5.56" length="10.44" shape="3813.05,3968.16 3815.71,3967.45 3818.06,3967.75 3820.09,3969.07 3821.80,3971.40"/>
    </edge>
    <edge id=":2195112281_15" function="internal">
        <lane id=":2195112281_15_0" index="0" allow="pedestrian delivery bicycle" speed="3.65" length="4.67" shape="3813.05,3968.16 3814.47,3968.42 3815.15,3968.99 3815.10,3969.89 3814.32,3971.10"/>
    </edge>
    <edge id=":2195112320_0" function="internal">
        <lane id=":2195112320_0_0" index="0" allow="pedestrian delivery bicycle" speed="13.89" length="13.37" shape="3620.80,4088.61 3618.06,4086.37 3615.47,4084.39 3613.20,4082.19 3611.44,4079.27"/>
    </edge>
    <edge id=":2195112320_1" function="internal">
        <lane id=":2195112320_1_0" index="0" disallow="tram rail_urban rail rail_electric rail_fast ship" speed="5.81" length="9.16" shape="3620.80,4088.61 3619.09,4086.53 3618.71,4084.67 3619.65,4083.04 3621.93,4081.62"/>
    </edge>
    <edge id=":2195112320_2" function="internal">
        <lane id=":2195112320_2_0" index="0" allow="pedestrian delivery bicycle" speed="5.79" length="7.02" shape="3614.38,4078.02 3615.23,4079.15 3616.56,4079.64 3618.35,4079.49 3620.61,4078.70"/>
    </edge>
    <edge id=":2195112320_3" function="internal">
        <lane id=":2195112320_3_0" index="0" allow="pedestrian delivery bicycle" speed="3.65" length="4.67" shape="3614.38,4078.02 3614.11,4079.44 3613.53,4080.12 3612.64,4080.06 3611.44,4079.27"/>
    </edge>
    <edge id=":2195112320_4" function="internal">
        <lane id=":2195112320_4_0" index="0" allow="pedestrian delivery bicycle" speed="5.00" length="5.04" shape="3609.72,4083.30 3610.93,4082.63 3611.62,4081.73 3611.79,4080.61 3611.44,4079.27"/>
    </edge>
    <edge id=":2195112320_5" function="internal">
        <lane id=":2195112320_5_0" index="0" disallow="tram rail_urban rail rail_electric rail_fast ship" speed="27.78" length="11.92" shape="3609.72,4083.30 3620.61,4078.70"/>
        <lane id=":2195112320_5_1" index="1" disallow="tram rail_urban rail rail_electric rail_fast ship" speed="27.78" length="11.92" shape="3610.86,4086.29 3621.93,4081.62"/>
    </edge>
    <edge id=":2195114531_0" function="internal">
        <lane id=":2195114531_0_0" index="0" allow="pedestrian delivery bicycle" speed="5.08" length="5.17" shape="3629.74,4105.11 3628.49,4105.70 3627.74,4106.57 3627.49,4107.72 3627.74,4109.16"/>
    </edge>
    <edge id=":2195114531_1" function="internal">
        <lane id=":2195114531_1_0" index="0" disallow="tram rail_urban rail rail_electric rail_fast ship" speed="27.78" length="12.62" shape="3629.74,4105.11 3626.29,4106.21 3623.99,4107.13 3621.74,4108.19 3618.45,4109.70"/>
        <lane id=":2195114531_1_1" index="1" disallow="tram rail_urban rail rail_electric rail_fast ship" speed="27.78" length="12.62" shape="3628.83,4102.04 3625.26,4103.18 3622.88,4104.13 3620.55,4105.21 3617.15,4106.78"/>
        <lane id=":2195114531_1_2" index="2" disallow="tram rail_urban rail rail_electric rail_fast ship" speed="27.78" length="12.62" shape="3627.91,4098.98 3624.23,4100.15 3621.77,4101.12 3619.37,4102.24 3615.85,4103.85"/>
    </edge>
    <edge id=":2195114531_4" function="internal">
        <lane id=":2195114531_4_0" index="0" allow="pedestrian delivery bicycle" speed="13.89" length="16.78" shape="3616.21,4097.37 3619.62,4099.60 3623.03,4102.42 3625.91,4105.66 3627.74,4109.16"/>
    </edge>
    <edge id=":2195114531_5" function="internal">
        <lane id=":2195114531_5_0" index="0" disallow="tram rail_urban rail rail_electric rail_fast ship" speed="6.55" length="13.53" shape="3616.21,4097.37 3619.86,4100.05 3621.23,4102.51 3620.33,4104.75 3617.15,4106.78"/>
    </edge>
    <edge id=":2195114531_6" function="internal">
        <lane id=":2195114531_6_0" index="0" disallow="tram rail_urban rail rail_electric rail_fast ship" speed="5.57" length="9.37" shape="3616.21,4097.37 3618.50,4099.12 3619.20,4100.79 3618.32,4102.36 3615.85,4103.85"/>
    </edge>
    <edge id=":2195114533_0" function="internal">
        <lane id=":2195114533_0_0" index="0" allow="pedestrian delivery bicycle" speed="5.94" length="7.56" shape="4393.59,3732.03 4392.51,3731.11 4391.03,3730.97 4389.16,3731.60 4386.89,3733.01"/>
    </edge>
    <edge id=":2195114533_1" function="internal">
        <lane id=":2195114533_1_0" index="0" allow="pedestrian delivery bicycle" speed="3.65" length="4.67" shape="4393.59,3732.03 4393.58,3730.59 4394.02,3729.81 4394.91,3729.69 4396.25,3730.24"/>
    </edge>
    <edge id=":2195114533_2" function="internal">
        <lane id=":2195114533_2_0" index="0" allow="pedestrian delivery bicycle" speed="5.28" length="5.21" shape="4396.67,3725.60 4395.78,3726.59 4395.42,3727.69 4395.57,3728.91 4396.25,3730.24"/>
    </edge>
    <edge id=":2195114533_3" function="internal">
        <lane id=":2195114533_3_0" index="0" disallow="tram rail_urban rail rail_electric rail_fast ship" speed="27.78" length="12.10" shape="4396.67,3725.60 4386.89,3733.01"/>
        <lane id=":2195114533_3_1" index="1" disallow="tram rail_urban rail rail_electric rail_fast ship" speed="27.78" length="12.10" shape="4394.65,3723.12 4385.00,3730.42"/>
        <lane id=":2195114533_3_2" index="2" disallow="tram rail_urban rail rail_electric rail_fast ship" speed="27.78" length="12.10" shape="4392.64,3720.63 4383.12,3727.83"/>
    </edge>
    <edge id=":2195114533_6" function="internal">
        <lane id=":2195114533_6_0" index="0" allow="pedestrian delivery bicycle" speed="13.89" length="16.55" shape="4382.82,3720.79 4386.34,3722.76 4390.10,3724.91 4393.57,3727.37 4396.25,3730.24"/>
    </edge>
    <edge id=":2195114533_7" function="internal">
        <lane id=":2195114533_7_0" index="0" disallow="tram rail_urban rail rail_electric rail_fast ship" speed="5.80" length="9.12" shape="4382.82,3720.79 4384.90,3722.45 4385.65,3724.18 4385.06,3725.97 4383.12,3727.83"/>
    </edge>
    <edge id=":2195123029_0" function="internal">
        <lane id=":2195123029_0_0" index="0" disallow="tram rail_urban rail rail_electric rail_fast ship" speed="33.50" length="15.92" shape="4349.47,3725.41 4353.54,3722.79 4356.52,3721.32 4359.60,3720.03 4364.00,3717.96"/>
        <lane id=":2195123029_0_1" index="1" disallow="tram rail_urban rail rail_electric rail_fast ship" speed="33.50" length="15.92" shape="4351.31,3728.03 4355.27,3725.48 4358.17,3724.06 4361.18,3722.82 4365.46,3720.81"/>
        <lane id=":2195123029_0_2" index="2" disallow="tram rail_urban rail rail_electric rail_fast ship" speed="33.50" length="15.92" shape="4353.15,3730.65 4357.00,3728.18 4359.82,3726.81 4362.75,3725.61 4366.91,3723.66"/>
    </edge>
    <edge id=":2195123029_3" function="internal">
        <lane id=":2195123029_3_0" index="0" disallow="tram rail_urban rail rail_electric rail_fast ship" speed="27.15" length="14.70" shape="4354.99,3733.27 4358.88,3730.68 4361.98,3728.99 4364.88,3727.86 4368.14,3726.96"/>
    </edge>
    <edge id=":2195123030_0" function="internal">
        <lane id=":2195123030_0_0" index="0" allow="pedestrian delivery bicycle" speed="5.56" length="7.98" shape="4426.87,3772.37 4424.93,3773.42 4423.14,3773.57 4421.51,3772.83 4420.04,3771.20"/>
    </edge>
    <edge id=":2195123030_1" function="internal">
        <lane id=":2195123030_1_0" index="0" allow="pedestrian delivery bicycle" speed="3.65" length="2.65" shape="4426.87,3772.37 4425.43,3772.44 4424.63,3772.04 4424.57,3771.73"/>
    </edge>
    <edge id=":2195123030_4" function="internal">
        <lane id=":2195123030_4_0" index="0" allow="pedestrian delivery bicycle" speed="3.65" length="2.03" shape="4424.57,3771.73 4424.47,3771.16 4424.96,3769.80"/>
    </edge>
    <edge id=":2195123030_2" function="internal">
        <lane id=":2195123030_2_0" index="0" allow="pedestrian delivery bicycle" speed="3.90" length="2.66" shape="4422.69,3769.41 4423.18,3769.95 4423.72,3770.20 4424.32,3770.15 4424.96,3769.80"/>
    </edge>
    <edge id=":2195123030_3" function="internal">
        <lane id=":2195123030_3_0" index="0" allow="pedestrian delivery bicycle" speed="3.65" length="2.08" shape="4422.69,3769.41 4422.70,3770.85 4422.38,3771.41"/>
    </edge>
    <edge id=":2195123030_5" function="internal">
        <lane id=":2195123030_5_0" index="0" allow="pedestrian delivery bicycle" speed="3.65" length="2.59" shape="4422.38,3771.41 4422.26,3771.63 4421.37,3771.75 4420.04,3771.20"/>
    </edge>
    <edge id=":2195191268_0" function="internal">
        <lane id=":2195191268_0_0" index="0" allow="pedestrian delivery bicycle" speed="3.65" length="4.67" shape="4481.98,3740.39 4483.42,3740.34 4484.21,3740.76 4484.35,3741.64 4483.84,3742.99"/>
    </edge>
    <edge id=":224174790_0" function="internal">
        <lane id=":224174790_0_0" index="0" disallow="tram rail_urban rail rail_electric rail_fast ship" speed="8.05" length="2.26" shape="4410.27,2801.15 4410.56,2801.76 4410.71,2802.19 4410.77,2802.65 4410.78,2803.32"/>
    </edge>
    <edge id=":224174790_1" function="internal">
        <lane id=":224174790_1_0" index="0" disallow="tram rail_urban rail rail_electric rail_fast ship" speed="13.89" length="0.75" shape="4407.58,2803.30 4407.57,2803.08 4407.55,2802.93 4407.50,2802.78 4407.41,2802.58"/>
    </edge>
    <edge id=":224174793_0" function="internal">
        <lane id=":224174793_0_0" index="0" disallow="tram rail_urban rail rail_electric rail_fast ship" speed="13.89" length="14.79" shape="4410.47,2867.46 4409.79,2882.23"/>
    </edge>
    <edge id=":224174793_1" function="internal">
        <lane id=":224174793_1_0" index="0" disallow="tram rail_urban rail rail_electric rail_fast ship" speed="8.10" length="6.29" shape="4410.47,2867.46 4409.89,2871.29 4408.60,2873.34"/>
    </edge>
    <edge id=":224174793_2" function="internal">
        <lane id=":224174793_2_0" index="0" disallow="tram rail_urban rail rail_electric rail_fast ship" speed="3.65" length="2.34" shape="4410.47,2867.46 4409.67,2868.65 4408.87,2869.05"/>
    </edge>
    <edge id=":224174793_9" function="internal">
        <lane id=":224174793_9_0" index="0" disallow="tram rail_urban rail rail_electric rail_fast ship" speed="8.10" length="8.14" shape="4408.60,2873.34 4408.17,2874.03 4405.32,2875.69 4401.34,2876.27"/>
    </edge>
    <edge id=":224174793_10" function="internal">