<?xml version="1.0" encoding="UTF-8"?>

<!-- generated on 08/09/21 17:35:02 by Eclipse SUMO netedit Version 1.8.0
<configuration xmlns:xsi="http://www.w3.org/2001/XMLSchema-instance" xsi:noNamespaceSchemaLocation="http://sumo.dlr.de/xsd/netconvertConfiguration.xsd">

    <input>
        <sumo-net-file value="C:\Users\Local_Man\Desktop\Stolen%20Music\school%20stuff%20for%20college\RESEARCH\coding\SUMO\Selfless-Traffic-Routing-Testbed-master\configurations\many_turns.net.xml"/>
    </input>

    <output>
        <output-file value="C:\Users\Local_Man\Desktop\Stolen%20Music\school%20stuff%20for%20college\RESEARCH\coding\SUMO\Selfless-Traffic-Routing-Testbed-master\configurations\many_turns.net.xml"/>
    </output>

    <processing>
        <geometry.min-radius.fix.railways value="false"/>
        <geometry.max-grade.fix value="false"/>
        <offset.disable-normalization value="true"/>
        <lefthand value="false"/>
    </processing>

    <junctions>
        <no-turnarounds value="true"/>
        <junctions.corner-detail value="5"/>
        <junctions.limit-turn-speed value="5.5"/>
        <rectangular-lane-cut value="false"/>
    </junctions>

    <pedestrian>
        <walkingareas value="false"/>
    </pedestrian>

    <report>
        <aggregate-warnings value="5"/>
    </report>

</configuration>
-->

<net version="1.6" junctionCornerDetail="5" limitTurnSpeed="5.50" xmlns:xsi="http://www.w3.org/2001/XMLSchema-instance" xsi:noNamespaceSchemaLocation="http://sumo.dlr.de/xsd/net_file.xsd">

    <location netOffset="0.00,0.00" convBoundary="-15.08,2.79,118.63,96.08" origBoundary="-10000000000.00,-10000000000.00,10000000000.00,10000000000.00" projParameter="!"/>

    <edge id=":gneJ0_0" function="internal">
        <lane id=":gneJ0_0_0" index="0" speed="8.36" length="3.90" shape="2.22,54.38 1.07,54.44 0.29,54.60 -0.44,54.95 -1.38,55.60"/>
    </edge>
    <edge id=":gneJ0_1" function="internal">
        <lane id=":gneJ0_1_0" index="0" speed="13.89" length="3.96" shape="-1.81,50.89 -0.66,51.12 0.14,51.22 0.95,51.22 2.12,51.19"/>
    </edge>
    <edge id=":gneJ0_2" function="internal">
        <lane id=":gneJ0_2_0" index="0" speed="4.91" length="3.65" shape="-1.81,50.89 0.23,51.63 0.98,52.66 0.91,52.85"/>
    </edge>
    <edge id=":gneJ0_3" function="internal">
        <lane id=":gneJ0_3_0" index="0" speed="4.91" length="3.66" shape="0.91,52.85 0.45,53.98 -1.38,55.60"/>
    </edge>
    <edge id=":gneJ1_0" function="internal">
        <lane id=":gneJ1_0_0" index="0" speed="5.46" length="9.99" shape="63.42,61.79 61.08,59.54 59.39,59.11 58.34,60.51 57.95,63.73"/>
    </edge>
    <edge id=":gneJ1_1" function="internal">
        <lane id=":gneJ1_1_0" index="0" speed="8.82" length="17.76" shape="63.42,61.79 59.81,58.60 56.04,57.38 52.08,58.13 47.95,60.86"/>
    </edge>
    <edge id=":gneJ1_2" function="internal">
        <lane id=":gneJ1_2_0" index="0" speed="13.89" length="22.86" shape="63.42,61.79 59.30,57.87 54.55,55.12 49.14,53.55 43.10,53.16"/>
    </edge>
    <edge id=":gneJ1_3" function="internal">
        <lane id=":gneJ1_3_0" index="0" speed="13.89" length="25.49" shape="63.42,61.79 59.70,57.90 54.34,52.86 48.82,47.98 44.62,44.61"/>
    </edge>
    <edge id=":gneJ1_4" function="internal">
        <lane id=":gneJ1_4_0" index="0" speed="13.89" length="6.29" shape="63.42,61.79 60.73,57.30 60.32,56.33"/>
    </edge>
    <edge id=":gneJ1_5" function="internal">
        <lane id=":gneJ1_5_0" index="0" speed="10.63" length="6.79" shape="63.42,61.79 60.06,56.49 59.96,55.98"/>
    </edge>
    <edge id=":gneJ1_6" function="internal">
        <lane id=":gneJ1_6_0" index="0" speed="7.67" length="7.06" shape="63.42,61.79 59.85,56.45 59.78,55.82"/>
    </edge>
    <edge id=":gneJ1_56" function="internal">
        <lane id=":gneJ1_56_0" index="0" speed="13.89" length="18.35" shape="60.32,56.33 57.97,50.77 55.80,44.02 54.92,38.86"/>
    </edge>
    <edge id=":gneJ1_57" function="internal">
        <lane id=":gneJ1_57_0" index="0" speed="10.63" length="16.32" shape="59.96,55.98 58.97,51.24 60.15,46.06 63.60,40.95"/>
    </edge>
    <edge id=":gneJ1_58" function="internal">
        <lane id=":gneJ1_58_0" index="0" speed="7.67" length="12.66" shape="59.78,55.82 59.41,52.59 62.08,50.24 67.87,49.38"/>
    </edge>
    <edge id=":gneJ1_7" function="internal">
        <lane id=":gneJ1_7_0" index="0" speed="5.91" length="11.07" shape="67.92,52.58 64.80,53.07 63.42,54.43 63.78,56.65 65.87,59.74"/>
    </edge>
    <edge id=":gneJ1_8" function="internal">
        <lane id=":gneJ1_8_0" index="0" speed="8.79" length="16.93" shape="67.92,52.58 63.63,53.33 60.54,55.44 58.64,58.91 57.95,63.73"/>
    </edge>
    <edge id=":gneJ1_9" function="internal">
        <lane id=":gneJ1_9_0" index="0" speed="13.89" length="21.84" shape="67.92,52.58 63.22,53.44 57.47,55.51 51.95,58.18 47.95,60.86"/>
    </edge>
    <edge id=":gneJ1_10" function="internal">
        <lane id=":gneJ1_10_0" index="0" speed="13.89" length="24.83" shape="67.92,52.58 43.10,53.16"/>
    </edge>
    <edge id=":gneJ1_11" function="internal">
        <lane id=":gneJ1_11_0" index="0" speed="13.89" length="7.41" shape="67.92,52.58 62.74,51.77 60.67,51.15"/>
    </edge>
    <edge id=":gneJ1_12" function="internal">
        <lane id=":gneJ1_12_0" index="0" speed="9.71" length="6.97" shape="67.92,52.58 62.25,51.80 61.20,51.14"/>
    </edge>
    <edge id=":gneJ1_13" function="internal">
        <lane id=":gneJ1_13_0" index="0" speed="7.51" length="7.21" shape="67.92,52.58 62.02,51.94 61.03,51.14"/>
    </edge>
    <edge id=":gneJ1_59" function="internal">
        <lane id=":gneJ1_59_0" index="0" speed="13.89" length="17.38" shape="60.67,51.15 55.92,49.71 49.28,47.09 44.62,44.61"/>
    </edge>
    <edge id=":gneJ1_60" function="internal">
        <lane id=":gneJ1_60_0" index="0" speed="9.71" length="14.63" shape="61.20,51.14 58.19,49.25 55.75,44.94 54.92,38.86"/>
    </edge>
    <edge id=":gneJ1_61" function="internal">
        <lane id=":gneJ1_61_0" index="0" speed="7.51" length="12.25" shape="61.03,51.14 59.34,49.78 59.86,46.12 63.60,40.95"/>
    </edge>
    <edge id=":gneJ1_14" function="internal">
        <lane id=":gneJ1_14_0" index="0" speed="5.64" length="10.25" shape="65.98,43.09 63.93,45.88 63.56,47.86 64.88,49.03 67.87,49.38"/>
    </edge>
    <edge id=":gneJ1_15" function="internal">
        <lane id=":gneJ1_15_0" index="0" speed="9.55" length="18.46" shape="65.98,43.09 63.23,47.17 62.30,51.30 63.18,55.49 65.87,59.74"/>
    </edge>
    <edge id=":gneJ1_16" function="internal">
        <lane id=":gneJ1_16_0" index="0" speed="13.89" length="22.37" shape="65.98,43.09 63.32,47.18 60.74,52.93 58.77,58.92 57.95,63.73"/>
    </edge>
    <edge id=":gneJ1_17" function="internal">
        <lane id=":gneJ1_17_0" index="0" speed="13.89" length="25.32" shape="65.98,43.09 62.28,46.97 57.12,52.13 51.88,57.21 47.95,60.86"/>
    </edge>
    <edge id=":gneJ1_18" function="internal">
        <lane id=":gneJ1_18_0" index="0" speed="13.89" length="10.76" shape="65.98,43.09 61.29,47.33 57.44,49.55"/>
    </edge>
    <edge id=":gneJ1_19" function="internal">
        <lane id=":gneJ1_19_0" index="0" speed="10.68" length="8.00" shape="65.98,43.09 61.20,47.01 59.45,47.53"/>
    </edge>
    <edge id=":gneJ1_20" function="internal">
        <lane id=":gneJ1_20_0" index="0" speed="7.46" length="8.51" shape="65.98,43.09 61.16,47.40 59.16,47.83"/>
    </edge>
    <edge id=":gneJ1_62" function="internal">
        <lane id=":gneJ1_62_0" index="0" speed="13.89" length="14.93" shape="57.44,49.55 55.91,50.43 49.85,52.37 43.10,53.16"/>
    </edge>
    <edge id=":gneJ1_63" function="internal">
        <lane id=":gneJ1_63_0" index="0" speed="10.68" length="15.83" shape="59.45,47.53 56.05,48.57 50.52,47.77 44.62,44.61"/>
    </edge>
    <edge id=":gneJ1_64" function="internal">
        <lane id=":gneJ1_64_0" index="0" speed="7.46" length="11.47" shape="59.16,47.83 57.71,48.14 55.63,45.29 54.92,38.86"/>
    </edge>
    <edge id=":gneJ1_21" function="internal">
        <lane id=":gneJ1_21_0" index="0" speed="5.46" length="9.90" shape="58.12,38.85 58.47,42.04 59.50,43.45 61.21,43.09 63.60,40.95"/>
    </edge>
    <edge id=":gneJ1_22" function="internal">
        <lane id=":gneJ1_22_0" index="0" speed="8.53" length="16.40" shape="58.12,38.85 58.74,43.51 60.58,46.82 63.62,48.78 67.87,49.38"/>
    </edge>
    <edge id=":gneJ1_23" function="internal">
        <lane id=":gneJ1_23_0" index="0" speed="13.89" length="22.48" shape="58.12,38.85 58.88,43.69 60.79,49.73 63.30,55.56 65.87,59.74"/>
    </edge>
    <edge id=":gneJ1_24" function="internal">
        <lane id=":gneJ1_24_0" index="0" speed="13.89" length="24.88" shape="58.12,38.85 57.95,63.73"/>
    </edge>
    <edge id=":gneJ1_25" function="internal">
        <lane id=":gneJ1_25_0" index="0" speed="13.89" length="9.61" shape="58.12,38.85 57.50,45.11 56.46,48.27"/>
    </edge>
    <edge id=":gneJ1_26" function="internal">
        <lane id=":gneJ1_26_0" index="0" speed="10.26" length="7.51" shape="58.12,38.85 57.20,44.94 56.47,46.08"/>
    </edge>
    <edge id=":gneJ1_27" function="internal">
        <lane id=":gneJ1_27_0" index="0" speed="8.03" length="7.47" shape="58.12,38.85 57.30,44.99 56.47,45.97"/>
    </edge>
    <edge id=":gneJ1_65" function="internal">
        <lane id=":gneJ1_65_0" index="0" speed="13.89" length="15.39" shape="56.46,48.27 55.60,50.86 52.42,56.11 47.95,60.86"/>
    </edge>
    <edge id=":gneJ1_66" function="internal">
        <lane id=":gneJ1_66_0" index="0" speed="10.26" length="15.99" shape="56.47,46.08 54.39,49.35 49.69,52.09 43.10,53.16"/>
    </edge>
    <edge id=":gneJ1_67" function="internal">
        <lane id=":gneJ1_67_0" index="0" speed="8.03" length="13.63" shape="56.47,45.97 54.77,48.00 50.55,47.87 44.62,44.61"/>
    </edge>
    <edge id=":gneJ1_28" function="internal">
        <lane id=":gneJ1_28_0" index="0" speed="6.42" length="12.91" shape="46.48,42.01 50.18,44.07 52.82,44.24 54.40,42.50 54.92,38.86"/>
    </edge>
    <edge id=":gneJ1_29" function="internal">
        <lane id=":gneJ1_29_0" index="0" speed="9.61" length="19.09" shape="46.48,42.01 51.24,44.57 55.68,45.25 59.80,44.04 63.60,40.95"/>
    </edge>
    <edge id=":gneJ1_30" function="internal">
        <lane id=":gneJ1_30_0" index="0" speed="13.89" length="22.80" shape="46.48,42.01 50.84,44.39 56.83,46.81 62.99,48.67 67.87,49.38"/>
    </edge>
    <edge id=":gneJ1_31" function="internal">
        <lane id=":gneJ1_31_0" index="0" speed="13.89" length="26.30" shape="46.48,42.01 50.77,45.46 56.49,50.52 62.05,55.76 65.87,59.74"/>
    </edge>
    <edge id=":gneJ1_32" function="internal">
        <lane id=":gneJ1_32_0" index="0" speed="13.89" length="12.64" shape="46.48,42.01 51.58,46.49 54.96,51.27"/>
    </edge>
    <edge id=":gneJ1_33" function="internal">
        <lane id=":gneJ1_33_0" index="0" speed="9.29" length="9.11" shape="46.48,42.01 51.31,46.56 52.23,48.86"/>
    </edge>
    <edge id=":gneJ1_34" function="internal">
        <lane id=":gneJ1_34_0" index="0" speed="7.58" length="9.99" shape="46.48,42.01 51.85,46.68 52.82,49.38"/>
    </edge>
    <edge id=":gneJ1_68" function="internal">
        <lane id=":gneJ1_68_0" index="0" speed="13.89" length="12.96" shape="54.96,51.27 55.19,51.60 57.32,57.35 57.95,63.73"/>
    </edge>
    <edge id=":gneJ1_69" function="internal">
        <lane id=":gneJ1_69_0" index="0" speed="9.29" length="13.81" shape="52.23,48.86 53.17,51.23 52.05,55.99 47.95,60.86"/>
    </edge>
    <edge id=":gneJ1_70" function="internal">
        <lane id=":gneJ1_70_0" index="0" speed="7.58" length="11.51" shape="52.82,49.38 53.08,50.09 50.16,52.25 43.10,53.16"/>
    </edge>
    <edge id=":gneJ1_35" function="internal">
        <lane id=":gneJ1_35_0" index="0" speed="5.46" length="10.30" shape="43.00,49.96 46.39,49.52 47.78,48.49 47.20,46.85 44.62,44.61"/>
    </edge>
    <edge id=":gneJ1_36" function="internal">
        <lane id=":gneJ1_36_0" index="0" speed="9.14" length="18.44" shape="43.00,49.96 48.23,49.13 51.96,47.00 54.19,43.58 54.92,38.86"/>
    </edge>
    <edge id=":gneJ1_37" function="internal">
        <lane id=":gneJ1_37_0" index="0" speed="13.89" length="23.11" shape="43.00,49.96 49.10,49.25 54.56,47.51 59.40,44.74 63.60,40.95"/>
    </edge>
    <edge id=":gneJ1_38" function="internal">
        <lane id=":gneJ1_38_0" index="0" speed="13.89" length="24.88" shape="43.00,49.96 67.87,49.38"/>
    </edge>
    <edge id=":gneJ1_39" function="internal">
        <lane id=":gneJ1_39_0" index="0" speed="13.89" length="10.07" shape="43.00,49.96 49.79,50.41 52.93,51.33"/>
    </edge>
    <edge id=":gneJ1_40" function="internal">
        <lane id=":gneJ1_40_0" index="0" speed="9.97" length="8.20" shape="43.00,49.96 49.63,50.65 50.98,51.37"/>
    </edge>
    <edge id=":gneJ1_41" function="internal">
        <lane id=":gneJ1_41_0" index="0" speed="7.58" length="8.80" shape="43.00,49.96 50.04,50.44 51.52,51.36"/>
    </edge>
    <edge id=":gneJ1_71" function="internal">
        <lane id=":gneJ1_71_0" index="0" speed="13.89" length="15.68" shape="52.93,51.33 55.86,52.19 61.22,55.30 65.87,59.74"/>
    </edge>
    <edge id=":gneJ1_72" function="internal">
        <lane id=":gneJ1_72_0" index="0" speed="9.97" length="15.23" shape="50.98,51.37 54.33,53.17 57.11,57.54 57.95,63.73"/>
    </edge>
    <edge id=":gneJ1_73" function="internal">
        <lane id=":gneJ1_73_0" index="0" speed="7.58" length="12.29" shape="51.52,51.36 53.21,52.41 52.52,55.89 47.95,60.86"/>
    </edge>
    <edge id=":gneJ1_42" function="internal">
        <lane id=":gneJ1_42_0" index="0" speed="5.54" length="10.48" shape="45.84,58.46 48.04,56.04 48.32,54.35 46.67,53.38 43.10,53.16"/>
    </edge>
    <edge id=":gneJ1_43" function="internal">
        <lane id=":gneJ1_43_0" index="0" speed="8.04" length="16.85" shape="45.84,58.46 48.82,54.90 49.61,51.41 48.21,47.98 44.62,44.61"/>
    </edge>
    <edge id=":gneJ1_44" function="internal">
        <lane id=":gneJ1_44_0" index="0" speed="13.89" length="22.28" shape="45.84,58.46 49.82,54.22 52.67,49.55 54.37,44.43 54.92,38.86"/>
    </edge>
    <edge id=":gneJ1_45" function="internal">
        <lane id=":gneJ1_45_0" index="0" speed="13.89" length="24.95" shape="45.84,58.46 49.72,54.85 54.87,49.86 59.94,44.79 63.60,40.95"/>
    </edge>
    <edge id=":gneJ1_46" function="internal">
        <lane id=":gneJ1_46_0" index="0" speed="13.89" length="7.37" shape="45.84,58.46 50.16,55.66 52.16,54.71"/>
    </edge>
    <edge id=":gneJ1_47" function="internal">
        <lane id=":gneJ1_47_0" index="0" speed="9.97" length="7.34" shape="45.84,58.46 51.17,54.94 52.10,54.77"/>
    </edge>
    <edge id=":gneJ1_48" function="internal">
        <lane id=":gneJ1_48_0" index="0" speed="7.73" length="7.62" shape="45.84,58.46 51.24,54.70 52.27,54.60"/>
    </edge>
    <edge id=":gneJ1_74" function="internal">
        <lane id=":gneJ1_74_0" index="0" speed="13.89" length="16.67" shape="52.16,54.71 56.39,52.71 62.85,50.37 67.87,49.38"/>
    </edge>
    <edge id=":gneJ1_75" function="internal">
        <lane id=":gneJ1_75_0" index="0" speed="9.97" length="15.67" shape="52.10,54.77 56.29,53.98 61.19,55.58 65.87,59.74"/>
    </edge>
    <edge id=":gneJ1_76" function="internal">
        <lane id=":gneJ1_76_0" index="0" speed="7.73" length="12.98" shape="52.27,54.60 55.06,54.33 57.30,57.34 57.95,63.73"/>
    </edge>
    <edge id=":gneJ1_49" function="internal">
        <lane id=":gneJ1_49_0" index="0" speed="5.93" length="11.47" shape="54.75,63.68 54.38,60.15 53.13,58.51 50.98,58.74 47.95,60.86"/>
    </edge>
    <edge id=":gneJ1_50" function="internal">
        <lane id=":gneJ1_50_0" index="0" speed="8.82" length="18.09" shape="54.75,63.68 54.09,58.94 51.93,55.61 48.26,53.68 43.10,53.16"/>
    </edge>
    <edge id=":gneJ1_51" function="internal">
        <lane id=":gneJ1_51_0" index="0" speed="13.39" length="22.49" shape="54.75,63.68 54.19,58.10 52.32,53.06 49.13,48.56 44.62,44.61"/>
    </edge>
    <edge id=":gneJ1_52" function="internal">
        <lane id=":gneJ1_52_0" index="0" speed="13.89" length="24.82" shape="54.75,63.68 54.92,38.86"/>
    </edge>
    <edge id=":gneJ1_53" function="internal">
        <lane id=":gneJ1_53_0" index="0" speed="13.89" length="7.43" shape="54.75,63.68 55.70,58.54 56.40,56.45"/>
    </edge>
    <edge id=":gneJ1_54" function="internal">
        <lane id=":gneJ1_54_0" index="0" speed="9.95" length="7.77" shape="54.75,63.68 55.66,57.50 56.40,56.17"/>
    </edge>
    <edge id=":gneJ1_55" function="internal">
        <lane id=":gneJ1_55_0" index="0" speed="7.48" length="8.04" shape="54.75,63.68 55.55,57.12 56.40,55.98"/>
    </edge>
    <edge id=":gneJ1_77" function="internal">
        <lane id=":gneJ1_77_0" index="0" speed="13.89" length="17.17" shape="56.40,56.45 57.95,51.83 60.82,45.36 63.60,40.95"/>
    </edge>
    <edge id=":gneJ1_78" function="internal">
        <lane id=":gneJ1_78_0" index="0" speed="9.95" length="14.20" shape="56.40,56.17 58.15,53.05 62.22,50.35 67.87,49.38"/>
    </edge>
    <edge id=":gneJ1_79" function="internal">
        <lane id=":gneJ1_79_0" index="0" speed="7.48" length="12.28" shape="56.40,55.98 57.67,54.28 61.11,55.15 65.87,59.74"/>
    </edge>
    <edge id=":gneJ10_0" function="internal">
        <lane id=":gneJ10_0_0" index="0" speed="3.98" length="3.84" shape="-16.59,50.14 -16.82,49.00 -16.59,48.28 -15.89,47.96 -14.74,48.06"/>
    </edge>
    <edge id=":gneJ11_0" function="internal">
        <lane id=":gneJ11_0_0" index="0" speed="3.99" length="3.96" shape="18.81,96.32 18.48,97.47 17.93,98.02 17.16,97.95 16.16,97.27"/>
    </edge>
    <edge id=":gneJ12_0" function="internal">
        <lane id=":gneJ12_0_0" index="0" speed="3.96" length="3.66" shape="7.32,89.37 6.61,88.54 6.46,87.82 6.86,87.20 7.82,86.68"/>
    </edge>
    <edge id=":gneJ13_0" function="internal">
        <lane id=":gneJ13_0_0" index="0" speed="4.28" length="5.68" shape="68.00,93.57 69.46,94.77 69.80,95.66 69.04,96.24 67.17,96.50"/>
    </edge>
    <edge id=":gneJ14_0" function="internal">
        <lane id=":gneJ14_0_0" index="0" speed="4.12" length="4.81" shape="48.31,97.32 46.77,97.22 46.05,96.74 46.15,95.88 47.06,94.64"/>
    </edge>
    <edge id=":gneJ15_0" function="internal">
        <lane id=":gneJ15_0_0" index="0" speed="4.56" length="7.12" shape="106.62,86.60 109.02,87.18 109.86,87.88 109.15,88.72 106.88,89.69"/>
    </edge>
    <edge id=":gneJ16_0" function="internal">
        <lane id=":gneJ16_0_0" index="0" speed="3.91" length="3.15" shape="85.78,96.89 84.89,97.05 84.24,96.87 83.83,96.33 83.66,95.45"/>
    </edge>
    <edge id=":gneJ17_0" function="internal">
        <lane id=":gneJ17_0_0" index="0" speed="4.16" length="5.01" shape="117.50,35.17 118.76,34.15 119.63,34.01 120.12,34.75 120.23,36.36"/>
    </edge>
    <edge id=":gneJ18_0" function="internal">
        <lane id=":gneJ18_0_0" index="0" speed="4.13" length="4.85" shape="119.05,64.90 118.82,66.44 118.27,67.12 117.42,66.94 116.26,65.90"/>
    </edge>
    <edge id=":gneJ19_0" function="internal">
        <lane id=":gneJ19_0_0" index="0" speed="3.90" length="2.95" shape="81.42,7.18 81.54,6.35 81.89,5.82 82.49,5.57 83.32,5.60"/>
    </edge>
    <edge id=":gneJ2_0" function="internal">
        <lane id=":gneJ2_0_0" index="0" speed="7.44" length="4.06" shape="22.08,83.64 21.21,84.45 20.70,85.12 20.41,85.90 20.20,87.08"/>
    </edge>
    <edge id=":gneJ2_1" function="internal">
        <lane id=":gneJ2_1_0" index="0" speed="13.89" length="4.14" shape="16.50,83.43 17.64,82.98 18.38,82.57 19.04,82.05 19.96,81.24"/>
    </edge>
    <edge id=":gneJ2_2" function="internal">
        <lane id=":gneJ2_2_0" index="0" speed="5.06" length="3.52" shape="16.50,83.43 18.42,83.03 19.68,83.50 19.77,83.70"/>
    </edge>
    <edge id=":gneJ2_3" function="internal">
        <lane id=":gneJ2_3_0" index="0" speed="5.06" length="3.48" shape="19.77,83.70 20.27,84.85 20.20,87.08"/>
    </edge>
    <edge id=":gneJ20_0" function="internal">
        <lane id=":gneJ20_0_0" index="0" speed="4.05" length="4.40" shape="97.82,8.31 99.13,8.73 99.69,9.33 99.49,10.13 98.54,11.12"/>
    </edge>
    <edge id=":gneJ21_0" function="internal">
        <lane id=":gneJ21_0_0" index="0" speed="3.97" length="3.79" shape="48.18,4.89 47.68,3.87 47.71,3.12 48.29,2.63 49.40,2.40"/>
    </edge>
    <edge id=":gneJ22_0" function="internal">
        <lane id=":gneJ22_0_0" index="0" speed="4.18" length="5.13" shape="67.88,1.20 69.54,1.26 70.31,1.74 70.16,2.63 69.11,3.92"/>
    </edge>
    <edge id=":gneJ23_0" function="internal">
        <lane id=":gneJ23_0_0" index="0" speed="4.17" length="5.06" shape="-1.34,23.73 -2.98,23.63 -3.73,23.14 -3.58,22.26 -2.54,20.99"/>
    </edge>
    <edge id=":gneJ24_0" function="internal">
        <lane id=":gneJ24_0_0" index="0" speed="3.94" length="3.51" shape="9.54,9.08 10.37,8.46 11.09,8.35 11.68,8.75 12.17,9.67"/>
    </edge>
    <edge id=":gneJ3_0" function="internal">
        <lane id=":gneJ3_0_0" index="0" speed="7.69" length="4.01" shape="15.95,24.20 14.98,23.55 14.23,23.20 13.41,23.08 12.23,23.11"/>
    </edge>
    <edge id=":gneJ3_1" function="internal">
        <lane id=":gneJ3_1_0" index="0" speed="8.35" length="4.03" shape="15.41,18.50 15.84,19.60 16.26,20.31 16.85,20.89 17.81,21.60"/>
    </edge>
    <edge id=":gneJ3_2" function="internal">
        <lane id=":gneJ3_2_0" index="0" speed="5.30" length="3.59" shape="15.41,18.50 15.81,20.43 15.42,21.85 15.30,21.93"/>
    </edge>
    <edge id=":gneJ3_3" function="internal">
        <lane id=":gneJ3_3_0" index="0" speed="5.30" length="3.37" shape="15.30,21.93 14.22,22.74 12.23,23.11"/>
    </edge>
    <edge id=":gneJ4_0" function="internal">
        <lane id=":gneJ4_0_0" index="0" speed="9.04" length="4.58" shape="54.85,17.34 54.83,15.99 54.71,15.05 54.36,14.18 53.65,13.05"/>
    </edge>
    <edge id=":gneJ4_1" function="internal">
        <lane id=":gneJ4_1_0" index="0" speed="7.11" length="4.42" shape="59.69,13.35 58.97,14.22 58.46,15.17 58.15,16.21 58.05,17.33"/>
    </edge>
    <edge id=":gneJ4_2" function="internal">
        <lane id=":gneJ4_2_0" index="0" speed="5.56" length="3.86" shape="59.69,13.35 58.00,14.64 56.43,15.02 56.32,14.98"/>
    </edge>
    <edge id=":gneJ4_3" function="internal">
        <lane id=":gneJ4_3_0" index="0" speed="5.56" length="3.39" shape="56.32,14.98 54.98,14.49 53.65,13.05"/>
    </edge>
    <edge id=":gneJ5_0" function="internal">
        <lane id=":gneJ5_0_0" index="0" speed="13.89" length="4.31" shape="85.44,21.86 84.47,22.68 83.83,23.28 83.23,23.93 82.38,24.88"/>
    </edge>
    <edge id=":gneJ5_1" function="internal">
        <lane id=":gneJ5_1_0" index="0" speed="4.95" length="3.65" shape="85.44,21.86 83.70,22.90 82.45,22.77 82.27,22.46"/>
    </edge>
    <edge id=":gneJ5_3" function="internal">
        <lane id=":gneJ5_3_0" index="0" speed="4.95" length="3.64" shape="82.27,22.46 81.70,21.46 81.44,18.98"/>
    </edge>
    <edge id=":gneJ5_2" function="internal">
        <lane id=":gneJ5_2_0" index="0" speed="7.28" length="4.19" shape="80.01,22.74 80.80,21.80 81.23,21.05 81.41,20.21 81.44,18.98"/>
    </edge>
    <edge id=":gneJ6_0" function="internal">
        <lane id=":gneJ6_0_0" index="0" speed="6.99" length="4.79" shape="105.56,53.94 104.65,53.11 103.64,52.53 102.52,52.18 101.30,52.08"/>
    </edge>
    <edge id=":gneJ6_1" function="internal">
        <lane id=":gneJ6_1_0" index="0" speed="6.19" length="4.20" shape="105.56,53.94 104.36,52.18 103.98,50.44 104.05,50.16"/>
    </edge>
    <edge id=":gneJ6_3" function="internal">
        <lane id=":gneJ6_3_0" index="0" speed="6.19" length="3.52" shape="104.05,50.16 104.40,48.75 105.63,47.09"/>
    </edge>
    <edge id=":gneJ6_2" function="internal">
        <lane id=":gneJ6_2_0" index="0" speed="7.59" length="4.94" shape="101.25,48.88 102.70,48.82 103.70,48.60 104.58,48.07 105.63,47.09"/>
    </edge>
    <edge id=":gneJ7_0" function="internal">
        <lane id=":gneJ7_0_0" index="0" speed="7.89" length="4.10" shape="83.28,87.34 83.18,86.15 82.98,85.33 82.55,84.60 81.79,83.66"/>
    </edge>
    <edge id=":gneJ7_1" function="internal">
        <lane id=":gneJ7_1_0" index="0" speed="5.45" length="3.64" shape="83.28,87.34 83.47,85.40 84.26,84.12 84.42,84.05"/>
    </edge>
    <edge id=":gneJ7_3" function="internal">
        <lane id=":gneJ7_3_0" index="0" speed="5.45" length="3.35" shape="84.42,84.05 85.66,83.50 87.66,83.54"/>
    </edge>
    <edge id=":gneJ7_2" function="internal">
        <lane id=":gneJ7_2_0" index="0" speed="7.36" length="4.07" shape="84.24,81.60 85.04,82.49 85.70,83.02 86.49,83.32 87.66,83.54"/>
    </edge>
    <edge id=":gneJ8_0" function="internal">
        <lane id=":gneJ8_0_0" index="0" speed="6.80" length="5.58" shape="57.62,83.50 57.76,84.94 58.22,86.20 58.99,87.30 60.09,88.24"/>
    </edge>
    <edge id=":gneJ8_1" function="internal">
        <lane id=":gneJ8_1_0" index="0" speed="8.59" length="5.90" shape="52.48,88.78 53.59,87.47 54.16,86.40 54.37,85.19 54.42,83.45"/>
    </edge>
    <edge id=":gneJ8_2" function="internal">
        <lane id=":gneJ8_2_0" index="0" speed="6.67" length="4.90" shape="52.48,88.78 54.17,87.44 56.00,86.90 56.83,87.01"/>
    </edge>
    <edge id=":gneJ8_3" function="internal">
        <lane id=":gneJ8_3_0" index="0" speed="6.67" length="3.53" shape="56.83,87.01 57.98,87.16 60.09,88.24"/>
    </edge>
    <edge id=":gneJ9_0" function="internal">
        <lane id=":gneJ9_0_0" index="0" speed="3.91" length="3.18" shape="-10.38,62.01 -11.19,62.43 -11.86,62.44 -12.41,62.03 -12.82,61.22"/>
    </edge>

    <edge id="gneE0" from="gneJ0" to="gneJ1" priority="-1">
        <lane id="gneE0_0" index="0" speed="13.89" length="40.90" shape="2.12,51.19 43.00,49.96"/>
    </edge>
    <edge id="gneE1" from="gneJ1" to="gneJ0" priority="-1">
        <lane id="gneE1_0" index="0" speed="13.89" length="40.90" shape="43.10,53.16 2.22,54.38"/>
    </edge>
    <edge id="gneE10" from="gneJ1" to="gneJ6" priority="-1">
        <lane id="gneE10_0" index="0" speed="13.89" length="33.38" shape="67.87,49.38 101.25,48.88"/>
    </edge>
    <edge id="gneE11" from="gneJ6" to="gneJ1" priority="-1">
        <lane id="gneE11_0" index="0" speed="13.89" length="33.38" shape="101.30,52.08 67.92,52.58"/>
    </edge>
    <edge id="gneE12" from="gneJ1" to="gneJ7" priority="-1">
        <lane id="gneE12_0" index="0" speed="13.89" length="28.56" shape="65.87,59.74 84.24,81.60"/>
    </edge>
    <edge id="gneE13" from="gneJ7" to="gneJ1" priority="-1">
        <lane id="gneE13_0" index="0" speed="13.89" length="28.56" shape="81.79,83.66 63.42,61.79"/>
    </edge>
    <edge id="gneE14" from="gneJ1" to="gneJ8" priority="-1">
        <lane id="gneE14_0" index="0" speed="13.89" length="19.77" shape="57.95,63.73 57.62,83.50"/>
    </edge>
    <edge id="gneE15" from="gneJ8" to="gneJ1" priority="-1">
        <lane id="gneE15_0" index="0" speed="13.89" length="19.77" shape="54.42,83.45 54.75,63.68"/>
    </edge>
    <edge id="gneE16" from="gneJ0" to="gneJ9" priority="-1">
        <lane id="gneE16_0" index="0" speed="13.89" length="11.04" shape="-1.38,55.60 -10.38,62.01"/>
    </edge>
    <edge id="gneE17" from="gneJ9" to="gneJ10" priority="-1">
        <lane id="gneE17_0" index="0" speed="13.89" length="11.71" shape="-12.82,61.22 -16.59,50.14"/>
    </edge>
    <edge id="gneE18" from="gneJ10" to="gneJ0" priority="-1">
        <lane id="gneE18_0" index="0" speed="13.89" length="13.23" shape="-14.74,48.06 -1.81,50.89"/>
    </edge>
    <edge id="gneE19" from="gneJ2" to="gneJ11" priority="-1">
        <lane id="gneE19_0" index="0" speed="13.89" length="9.35" shape="20.20,87.08 18.81,96.32"/>
    </edge>
    <edge id="gneE2" from="gneJ1" to="gneJ2" priority="-1">
        <lane id="gneE2_0" index="0" speed="13.89" length="34.47" shape="47.95,60.86 22.08,83.64"/>
    </edge>
    <edge id="gneE20" from="gneJ11" to="gneJ12" priority="-1">
        <lane id="gneE20_0" index="0" speed="13.89" length="11.86" shape="16.16,97.27 7.32,89.37"/>
    </edge>
    <edge id="gneE21" from="gneJ12" to="gneJ2" priority="-1">
        <lane id="gneE21_0" index="0" speed="13.89" length="9.27" shape="7.82,86.68 16.50,83.43"/>
    </edge>
    <edge id="gneE22" from="gneJ8" to="gneJ13" priority="-1">
        <lane id="gneE22_0" index="0" speed="13.89" length="9.54" shape="60.09,88.24 68.00,93.57"/>
    </edge>
    <edge id="gneE23" from="gneJ13" to="gneJ14" priority="-1">
        <lane id="gneE23_0" index="0" speed="13.89" length="18.88" shape="67.17,96.50 48.31,97.32"/>
    </edge>
    <edge id="gneE24" from="gneJ14" to="gneJ8" priority="-1">
        <lane id="gneE24_0" index="0" speed="13.89" length="7.98" shape="47.06,94.64 52.48,88.78"/>
    </edge>
    <edge id="gneE25" from="gneJ7" to="gneJ15" priority="-1">
        <lane id="gneE25_0" index="0" speed="13.89" length="19.21" shape="87.66,83.54 106.62,86.60"/>
    </edge>
    <edge id="gneE26" from="gneJ15" to="gneJ16" priority="-1">
        <lane id="gneE26_0" index="0" speed="13.89" length="22.30" shape="106.88,89.69 85.78,96.89"/>
    </edge>
    <edge id="gneE27" from="gneJ16" to="gneJ7" priority="-1">
        <lane id="gneE27_0" index="0" speed="13.89" length="8.11" shape="83.66,95.45 83.28,87.34"/>
    </edge>
    <edge id="gneE28" from="gneJ6" to="gneJ17" priority="-1">
        <lane id="gneE28_0" index="0" speed="13.89" length="16.82" shape="105.63,47.09 117.50,35.17"/>
    </edge>
    <edge id="gneE29" from="gneJ17" to="gneJ18" priority="-1">
        <lane id="gneE29_0" index="0" speed="13.89" length="28.56" shape="120.23,36.36 119.05,64.90"/>