<?xml version="1.0" encoding="UTF-8"?>

<!-- generated on 09/30/21 18:32:29 by Eclipse SUMO netedit Version 1.8.0
<configuration xmlns:xsi="http://www.w3.org/2001/XMLSchema-instance" xsi:noNamespaceSchemaLocation="http://sumo.dlr.de/xsd/netconvertConfiguration.xsd">

    <output>
        <output-file value="C:\Users\Local_Man\Desktop\Stolen%20Music\school%20stuff%20for%20college\RESEARCH\coding\SUMO\Selfless-Traffic-Routing-Testbed-master\configurations\short.net.xml"/>
    </output>

    <processing>
        <offset.disable-normalization value="true"/>
    </processing>

    <junctions>
        <no-turnarounds value="true"/>
    </junctions>

    <report>
        <aggregate-warnings value="5"/>
    </report>

</configuration>
-->

<net version="1.6" junctionCornerDetail="5" limitTurnSpeed="5.50" xmlns:xsi="http://www.w3.org/2001/XMLSchema-instance" xsi:noNamespaceSchemaLocation="http://sumo.dlr.de/xsd/net_file.xsd">

    <location netOffset="0.00,0.00" convBoundary="-18.65,25.46,92.67,92.78" origBoundary="10000000000.00,10000000000.00,-10000000000.00,-10000000000.00" projParameter="!"/>

    <edge id=":gneJ0_0" function="internal">
        <lane id=":gneJ0_0_0" index="0" speed="13.89" length="0.17" shape="-7.68,59.23 -7.85,59.23"/>
    </edge>
    <edge id=":gneJ0_1" function="internal">
        <lane id=":gneJ0_1_0" index="0" speed="13.89" length="0.29" shape="-7.93,56.03 -7.64,56.03"/>
    </edge>
    <edge id=":gneJ1_0" function="internal">
        <lane id=":gneJ1_0_0" index="0" speed="13.89" length="0.29" shape="10.16,59.42 9.87,59.42"/>
    </edge>
    <edge id=":gneJ1_1" function="internal">
        <lane id=":gneJ1_1_0" index="0" speed="13.89" length="0.31" shape="9.90,56.22 10.21,56.22"/>
    </edge>
    <edge id=":gneJ10_0" function="internal">
        <lane id=":gneJ10_0_0" index="0" speed="3.90" length="2.71" shape="52.62,51.04 52.51,50.30 52.18,49.79 51.65,49.51 50.90,49.46"/>
    </edge>
    <edge id=":gneJ10_1" function="internal">
        <lane id=":gneJ10_1_0" index="0" speed="6.07" length="8.12" shape="50.65,46.27 52.89,46.42 54.50,47.25 55.48,48.78 55.82,51.00"/>
    </edge>
    <edge id=":gneJ11_0" function="internal">
        <lane id=":gneJ11_0_0" index="0" speed="13.89" length="0.30" shape="52.65,53.19 52.64,52.89"/>
    </edge>
    <edge id=":gneJ11_1" function="internal">
        <lane id=":gneJ11_1_0" index="0" speed="13.89" length="0.30" shape="55.84,52.86 55.85,53.16"/>
    </edge>
    <edge id=":gneJ12_0" function="internal">
        <lane id=":gneJ12_0_0" index="0" speed="6.14" length="6.39" shape="55.88,56.27 55.67,57.95 55.01,59.30 53.90,60.30 52.34,60.95"/>
    </edge>
    <edge id=":gneJ12_1" function="internal">
        <lane id=":gneJ12_1_0" index="0" speed="3.94" length="2.13" shape="51.50,57.86 52.02,57.65 52.39,57.31 52.61,56.86 52.68,56.30"/>
    </edge>
    <edge id=":gneJ13_0" function="internal">
        <lane id=":gneJ13_0_0" index="0" speed="6.20" length="11.37" shape="48.84,66.05 46.75,63.35 46.41,61.11 47.81,59.33 50.96,58.01"/>
    </edge>
    <edge id=":gneJ13_1" function="internal">
        <lane id=":gneJ13_1_0" index="0" speed="3.97" length="3.79" shape="51.80,61.10 50.75,61.54 50.28,62.13 50.39,62.88 51.09,63.78"/>
    </edge>
    <edge id=":gneJ14_0" function="internal">
        <lane id=":gneJ14_0_0" index="0" speed="6.29" length="5.10" shape="54.62,68.33 53.31,68.54 52.09,68.41 50.96,67.94 49.92,67.12"/>
    </edge>
    <edge id=":gneJ14_1" function="internal">
        <lane id=":gneJ14_1_0" index="0" speed="4.02" length="1.70" shape="52.17,64.85 52.52,65.12 52.89,65.28 53.30,65.32 53.74,65.25"/>
    </edge>
    <edge id=":gneJ15_0" function="internal">
        <lane id=":gneJ15_0_0" index="0" speed="7.79" length="12.77" shape="-10.97,59.31 -14.63,58.95 -17.33,57.66 -19.08,55.44 -19.88,52.28"/>
    </edge>
    <edge id=":gneJ15_1" function="internal">
        <lane id=":gneJ15_1_0" index="0" speed="6.28" length="7.94" shape="-16.70,51.86 -16.21,53.77 -15.10,55.12 -13.38,55.90 -11.05,56.11"/>
    </edge>
    <edge id=":gneJ15_2" function="internal">
        <lane id=":gneJ15_2_0" index="0" speed="13.89" length="5.00" shape="-19.36,57.24 -19.36,55.76 -19.49,54.75 -19.69,53.75 -19.88,52.28"/>
    </edge>
    <edge id=":gneJ15_3" function="internal">
        <lane id=":gneJ15_3_0" index="0" speed="6.48" length="3.38" shape="-19.36,57.24 -18.18,56.64 -16.13,56.38"/>
    </edge>
    <edge id=":gneJ15_4" function="internal">
        <lane id=":gneJ15_4_0" index="0" speed="6.48" length="5.09" shape="-16.13,56.38 -15.56,56.31 -12.76,56.16 -11.05,56.11"/>
    </edge>
    <edge id=":gneJ16_0" function="internal">
        <lane id=":gneJ16_0_0" index="0" speed="4.00" length="1.75" shape="61.25,67.33 60.90,67.04 60.51,66.87 60.09,66.82 59.64,66.89"/>
    </edge>
    <edge id=":gneJ16_1" function="internal">
        <lane id=":gneJ16_1_0" index="0" speed="6.26" length="5.26" shape="58.76,63.81 60.12,63.59 61.37,63.74 62.52,64.25 63.57,65.13"/>
    </edge>
    <edge id=":gneJ17_0" function="internal">
        <lane id=":gneJ17_0_0" index="0" speed="6.07" length="8.25" shape="68.72,67.63 66.98,69.11 65.21,69.62 63.43,69.17 61.64,67.74"/>
    </edge>
    <edge id=":gneJ17_1" function="internal">
        <lane id=":gneJ17_1_0" index="0" speed="3.90" length="2.75" shape="63.97,65.55 64.56,66.02 65.16,66.17 65.75,66.00 66.33,65.51"/>
    </edge>
    <edge id=":gneJ18_0" function="internal">
        <lane id=":gneJ18_0_0" index="0" speed="13.89" length="0.81" shape="70.28,66.16 70.06,66.25 69.92,66.33 69.79,66.43 69.63,66.61"/>
    </edge>
    <edge id=":gneJ18_1" function="internal">
        <lane id=":gneJ18_1_0" index="0" speed="7.77" length="2.42" shape="67.23,64.49 67.72,63.96 68.09,63.64 68.53,63.41 69.20,63.16"/>
    </edge>
    <edge id=":gneJ19_0" function="internal">
        <lane id=":gneJ19_0_0" index="0" speed="6.55" length="4.00" shape="81.08,60.59 80.60,61.50 79.97,62.25 79.19,62.84 78.27,63.28"/>
    </edge>
    <edge id=":gneJ19_1" function="internal">
        <lane id=":gneJ19_1_0" index="0" speed="4.15" length="1.33" shape="77.18,60.27 77.49,60.12 77.75,59.92 77.96,59.67 78.12,59.37"/>
    </edge>
    <edge id=":gneJ2_0" function="internal">
        <lane id=":gneJ2_0_0" index="0" speed="13.89" length="0.56" shape="15.48,59.47 15.31,59.49 15.20,59.50 15.08,59.50 14.92,59.50"/>
    </edge>
    <edge id=":gneJ2_1" function="internal">
        <lane id=":gneJ2_1_0" index="0" speed="13.89" length="0.19" shape="14.97,56.30 15.02,56.30 15.06,56.30 15.10,56.29 15.16,56.29"/>
    </edge>
    <edge id=":gneJ20_0" function="internal">
        <lane id=":gneJ20_0_0" index="0" speed="3.98" length="1.84" shape="83.73,56.63 83.25,56.70 82.85,56.89 82.54,57.20 82.30,57.62"/>
    </edge>
    <edge id=":gneJ20_1" function="internal">
        <lane id=":gneJ20_1_0" index="0" speed="6.23" length="5.53" shape="79.34,56.40 80.05,55.14 81.00,54.22 82.19,53.65 83.62,53.43"/>
    </edge>
    <edge id=":gneJ21_0" function="internal">
        <lane id=":gneJ21_0_0" index="0" speed="13.89" length="14.23" shape="94.11,47.53 94.11,51.16 93.96,54.64 93.63,58.11 93.10,61.70"/>
    </edge>
    <edge id=":gneJ21_1" function="internal">
        <lane id=":gneJ21_1_0" index="0" speed="8.18" length="6.10" shape="94.11,47.53 93.60,51.38 92.43,53.27"/>
    </edge>
    <edge id=":gneJ21_6" function="internal">
        <lane id=":gneJ21_6_0" index="0" speed="8.18" length="8.67" shape="92.43,53.27 91.88,54.17 88.95,55.91 84.80,56.59"/>
    </edge>
    <edge id=":gneJ21_2" function="internal">
        <lane id=":gneJ21_2_0" index="0" speed="6.73" length="9.65" shape="84.70,53.39 87.46,52.95 89.42,51.84 90.57,50.06 90.91,47.60"/>
    </edge>
    <edge id=":gneJ21_3" function="internal">
        <lane id=":gneJ21_3_0" index="0" speed="7.49" length="14.18" shape="84.70,53.39 88.93,53.79 91.74,55.31 93.13,57.95 93.10,61.70"/>
    </edge>
    <edge id=":gneJ21_4" function="internal">
        <lane id=":gneJ21_4_0" index="0" speed="5.86" length="8.23" shape="89.95,61.17 89.93,59.09 89.07,57.64 87.36,56.80 84.80,56.59"/>
    </edge>
    <edge id=":gneJ21_5" function="internal">
        <lane id=":gneJ21_5_0" index="0" speed="13.89" length="13.62" shape="89.95,61.17 90.47,57.67 90.78,54.41 90.92,51.14 90.91,47.60"/>
    </edge>
    <edge id=":gneJ24_0" function="internal">
        <lane id=":gneJ24_0_0" index="0" speed="13.89" length="0.28" shape="93.07,61.90 93.04,61.62"/>
    </edge>
    <edge id=":gneJ24_1" function="internal">
        <lane id=":gneJ24_1_0" index="0" speed="13.89" length="0.84" shape="90.03,60.53 89.91,61.36"/>
    </edge>
    <edge id=":gneJ25_0" function="internal">
        <lane id=":gneJ25_0_0" index="0" speed="13.89" length="1.07" shape="90.88,67.60 90.77,67.89 90.69,68.09 90.58,68.28 90.41,68.55"/>
    </edge>
    <edge id=":gneJ25_1" function="internal">
        <lane id=":gneJ25_1_0" index="0" speed="13.89" length="0.36" shape="87.72,66.83 87.77,66.74 87.81,66.68 87.84,66.61 87.87,66.51"/>
    </edge>
    <edge id=":gneJ26_0" function="internal">
        <lane id=":gneJ26_0_0" index="0" speed="13.89" length="0.87" shape="87.53,73.08 87.39,73.29 87.28,73.44 87.17,73.57 86.99,73.76"/>
    </edge>
    <edge id=":gneJ26_1" function="internal">
        <lane id=":gneJ26_1_0" index="0" speed="13.89" length="0.29" shape="84.65,71.58 84.71,71.52 84.75,71.47 84.78,71.43 84.83,71.35"/>
    </edge>
    <edge id=":gneJ27_0" function="internal">
        <lane id=":gneJ27_0_0" index="0" speed="13.89" length="0.45" shape="83.09,77.97 83.00,78.06 82.93,78.13 82.87,78.19 82.77,78.28"/>
    </edge>
    <edge id=":gneJ27_1" function="internal">
        <lane id=":gneJ27_1_0" index="0" speed="13.89" length="0.15" shape="80.64,75.90 80.67,75.87 80.69,75.85 80.71,75.82 80.74,75.79"/>
    </edge>
    <edge id=":gneJ28_0" function="internal">
        <lane id=":gneJ28_0_0" index="0" speed="13.89" length="0.68" shape="77.99,82.56 77.83,82.69 77.72,82.77 77.60,82.84 77.43,82.95"/>
    </edge>
    <edge id=":gneJ28_1" function="internal">
        <lane id=":gneJ28_1_0" index="0" speed="13.89" length="0.23" shape="75.67,80.31 75.73,80.27 75.77,80.25 75.80,80.22 75.85,80.17"/>
    </edge>
    <edge id=":gneJ29_0" function="internal">
        <lane id=":gneJ29_0_0" index="0" speed="13.89" length="0.32" shape="72.36,86.33 72.09,86.50"/>
    </edge>
    <edge id=":gneJ29_1" function="internal">
        <lane id=":gneJ29_1_0" index="0" speed="13.89" length="0.28" shape="70.37,83.81 70.60,83.66"/>
    </edge>
    <edge id=":gneJ3_0" function="internal">
        <lane id=":gneJ3_0_0" index="0" speed="13.89" length="0.14" shape="20.76,58.95 20.62,58.96"/>
    </edge>
    <edge id=":gneJ3_1" function="internal">
        <lane id=":gneJ3_1_0" index="0" speed="13.89" length="0.27" shape="20.30,55.77 20.57,55.75"/>
    </edge>
    <edge id=":gneJ30_0" function="internal">
        <lane id=":gneJ30_0_0" index="0" speed="13.89" length="0.53" shape="66.93,89.81 66.80,89.89 66.71,89.94 66.61,89.99 66.47,90.06"/>
    </edge>
    <edge id=":gneJ30_1" function="internal">
        <lane id=":gneJ30_1_0" index="0" speed="13.89" length="0.18" shape="65.05,87.20 65.21,87.11"/>
    </edge>
    <edge id=":gneJ31_0" function="internal">
        <lane id=":gneJ31_0_0" index="0" speed="9.37" length="1.72" shape="61.50,92.69 61.05,92.93 60.72,93.06 60.38,93.14 59.87,93.21"/>
    </edge>
    <edge id=":gneJ31_1" function="internal">
        <lane id=":gneJ31_1_0" index="0" speed="13.89" length="0.57" shape="59.46,90.04 59.63,90.01 59.75,89.99 59.85,89.94 60.01,89.87"/>
    </edge>
    <edge id=":gneJ32_0" function="internal">
        <lane id=":gneJ32_0_0" index="0" speed="13.89" length="0.34" shape="53.87,93.99 53.53,94.02"/>
    </edge>
    <edge id=":gneJ32_1" function="internal">
        <lane id=":gneJ32_1_0" index="0" speed="13.89" length="0.11" shape="53.35,90.82 53.46,90.81"/>
    </edge>
    <edge id=":gneJ33_0" function="internal">
        <lane id=":gneJ33_0_0" index="0" speed="13.89" length="7.48" shape="51.13,94.16 43.65,94.27"/>
    </edge>
    <edge id=":gneJ33_1" function="internal">
        <lane id=":gneJ33_1_0" index="0" speed="13.89" length="7.21" shape="43.74,91.08 50.94,90.96"/>
    </edge>
    <edge id=":gneJ33_2" function="internal">
        <lane id=":gneJ33_2_0" index="0" speed="13.89" length="7.49" shape="43.46,91.12 50.94,90.96"/>
    </edge>
    <edge id=":gneJ33_3" function="internal">
        <lane id=":gneJ33_3_0" index="0" speed="3.23" length="3.16" shape="43.46,91.12 43.65,94.27"/>
    </edge>
    <edge id=":gneJ34_0" function="internal">
        <lane id=":gneJ34_0_0" index="0" speed="13.89" length="2.65" shape="43.37,94.27 40.71,94.23"/>
    </edge>
    <edge id=":gneJ35_0" function="internal">
        <lane id=":gneJ35_0_0" index="0" speed="13.89" length="0.76" shape="37.25,94.23 37.02,94.23 36.86,94.22 36.71,94.20 36.49,94.16"/>
    </edge>
    <edge id=":gneJ35_1" function="internal">
        <lane id=":gneJ35_1_0" index="0" speed="13.89" length="0.25" shape="37.04,91.01 37.11,91.02 37.16,91.03 37.22,91.03 37.29,91.04"/>
    </edge>
    <edge id=":gneJ36_0" function="internal">
        <lane id=":gneJ36_0_0" index="0" speed="13.89" length="7.76" shape="34.92,93.89 27.28,92.52"/>
    </edge>
    <edge id=":gneJ36_1" function="internal">
        <lane id=":gneJ36_1_0" index="0" speed="13.89" length="7.82" shape="27.78,89.35 35.47,90.74"/>
    </edge>
    <edge id=":gneJ36_2" function="internal">
        <lane id=":gneJ36_2_0" index="0" speed="13.89" length="7.98" shape="27.59,89.48 35.47,90.74"/>
    </edge>
    <edge id=":gneJ36_3" function="internal">
        <lane id=":gneJ36_3_0" index="0" speed="3.21" length="3.05" shape="27.59,89.48 27.28,92.52"/>
    </edge>
    <edge id=":gneJ37_0" function="internal">
        <lane id=":gneJ37_0_0" index="0" speed="13.89" length="0.10" shape="27.08,92.48 27.08,92.48"/>
    </edge>
    <edge id=":gneJ37_1" function="internal">
        <lane id=":gneJ37_1_0" index="0" speed="13.89" length="0.18" shape="27.44,89.30 27.62,89.32"/>
    </edge>
    <edge id=":gneJ38_0" function="internal">
        <lane id=":gneJ38_0_0" index="0" speed="13.89" length="7.52" shape="25.83,92.34 18.33,91.82"/>
    </edge>
    <edge id=":gneJ38_1" function="internal">
        <lane id=":gneJ38_1_0" index="0" speed="3.22" length="3.08" shape="25.83,92.34 26.17,89.28"/>
    </edge>
    <edge id=":gneJ38_2" function="internal">
        <lane id=":gneJ38_2_0" index="0" speed="13.89" length="7.78" shape="18.42,88.62 26.18,89.16"/>
    </edge>
    <edge id=":gneJ38_3" function="internal">
        <lane id=":gneJ38_3_0" index="0" speed="13.89" length="7.79" shape="18.42,88.62 20.73,88.70 22.30,88.79 23.88,88.96 26.17,89.28"/>
    </edge>
    <edge id=":gneJ39_0" function="internal">
        <lane id=":gneJ39_0_0" index="0" speed="13.89" length="1.01" shape="17.31,91.80 17.01,91.79 16.81,91.77 16.60,91.73 16.31,91.66"/>
    </edge>
    <edge id=":gneJ39_1" function="internal">
        <lane id=":gneJ39_1_0" index="0" speed="13.89" length="0.34" shape="17.07,88.55 17.17,88.58 17.23,88.59 17.30,88.59 17.40,88.60"/>
    </edge>
    <edge id=":gneJ4_0" function="internal">
        <lane id=":gneJ4_0_0" index="0" speed="13.89" length="8.01" shape="30.12,58.51 22.12,58.87"/>
    </edge>
    <edge id=":gneJ4_1" function="internal">
        <lane id=":gneJ4_1_0" index="0" speed="3.31" length="3.38" shape="30.12,58.51 29.29,55.23"/>
    </edge>
    <edge id=":gneJ4_2" function="internal">
        <lane id=":gneJ4_2_0" index="0" speed="13.89" length="7.37" shape="21.94,55.67 29.29,55.23"/>
    </edge>
    <edge id=":gneJ4_3" function="internal">
        <lane id=":gneJ4_3_0" index="0" speed="13.89" length="7.39" shape="29.49,58.43 22.12,58.87"/>
    </edge>
    <edge id=":gneJ40_0" function="internal">
        <lane id=":gneJ40_0_0" index="0" speed="13.89" length="0.31" shape="11.45,90.48 11.15,90.40"/>
    </edge>
    <edge id=":gneJ40_1" function="internal">
        <lane id=":gneJ40_1_0" index="0" speed="13.89" length="0.23" shape="11.98,87.31 12.21,87.37"/>
    </edge>
    <edge id=":gneJ41_0" function="internal">
        <lane id=":gneJ41_0_0" index="0" speed="13.89" length="0.29" shape="7.66,89.46 7.37,89.38"/>
    </edge>
    <edge id=":gneJ41_1" function="internal">
        <lane id=":gneJ41_1_0" index="0" speed="13.89" length="0.18" shape="8.31,86.32 8.49,86.37"/>
    </edge>
    <edge id=":gneJ42_0" function="internal">
        <lane id=":gneJ42_0_0" index="0" speed="13.89" length="0.14" shape="3.88,88.31 3.84,88.29 3.81,88.29 3.79,88.28 3.75,88.27"/>
    </edge>
    <edge id=":gneJ42_1" function="internal">
        <lane id=":gneJ42_1_0" index="0" speed="13.89" length="0.42" shape="4.42,85.14 4.54,85.17 4.62,85.19 4.70,85.21 4.82,85.25"/>
    </edge>
    <edge id=":gneJ43_0" function="internal">
        <lane id=":gneJ43_0_0" index="0" speed="13.89" length="2.20" shape="0.82,87.64 0.18,87.50 -0.25,87.39 -0.68,87.25 -1.29,87.03"/>
    </edge>
    <edge id=":gneJ43_1" function="internal">
        <lane id=":gneJ43_1_0" index="0" speed="13.89" length="1.74" shape="-0.18,84.03 0.31,84.21 0.64,84.32 0.98,84.40 1.49,84.51"/>
    </edge>
    <edge id=":gneJ43_2" function="internal">
        <lane id=":gneJ43_2_0" index="0" speed="13.89" length="1.74" shape="-0.14,83.94 0.32,84.16 0.65,84.30 0.99,84.40 1.49,84.51"/>
    </edge>
    <edge id=":gneJ43_3" function="internal">
        <lane id=":gneJ43_3_0" index="0" speed="3.69" length="4.65" shape="-0.14,83.94 0.62,84.84 0.55,86.02 -0.15,86.93 -1.29,87.03"/>
    </edge>
    <edge id=":gneJ44_0" function="internal">
        <lane id=":gneJ44_0_0" index="0" speed="13.89" length="1.54" shape="-3.73,86.13 -4.15,85.96 -4.44,85.84 -4.71,85.68 -5.11,85.45"/>
    </edge>
    <edge id=":gneJ45_0" function="internal">
        <lane id=":gneJ45_0_0" index="0" speed="13.89" length="1.62" shape="-7.81,83.86 -8.22,83.61 -8.50,83.43 -8.75,83.21 -9.09,82.88"/>
    </edge>
    <edge id=":gneJ45_1" function="internal">
        <lane id=":gneJ45_1_0" index="0" speed="13.89" length="0.54" shape="-6.83,80.62 -6.72,80.73 -6.63,80.80 -6.54,80.86 -6.39,80.93"/>
    </edge>
    <edge id=":gneJ46_0" function="internal">
        <lane id=":gneJ46_0_0" index="0" speed="13.89" length="2.73" shape="-10.81,81.16 -11.39,80.58 -11.77,80.18 -12.13,79.76 -12.66,79.14"/>
    </edge>
    <edge id=":gneJ46_1" function="internal">
        <lane id=":gneJ46_1_0" index="0" speed="13.89" length="2.44" shape="-10.20,77.09 -9.73,77.65 -9.40,78.02 -9.06,78.38 -8.55,78.90"/>
    </edge>
    <edge id=":gneJ46_2" function="internal">
        <lane id=":gneJ46_2_0" index="0" speed="13.89" length="2.44" shape="-10.17,77.07 -9.72,77.64 -9.40,78.02 -9.06,78.38 -8.55,78.90"/>
    </edge>
    <edge id=":gneJ46_3" function="internal">
        <lane id=":gneJ46_3_0" index="0" speed="3.26" length="3.24" shape="-10.17,77.07 -12.66,79.14"/>
    </edge>
    <edge id=":gneJ47_0" function="internal">
        <lane id=":gneJ47_0_0" index="0" speed="13.89" length="3.09" shape="-14.49,76.94 -16.34,74.47"/>
    </edge>
    <edge id=":gneJ47_1" function="internal">
        <lane id=":gneJ47_1_0" index="0" speed="13.89" length="2.92" shape="-13.43,72.33 -13.05,73.12 -12.82,73.68 -12.55,74.20 -12.03,74.89"/>
    </edge>
    <edge id=":gneJ48_0" function="internal">
        <lane id=":gneJ48_0_0" index="0" speed="13.89" length="2.24" shape="-21.77,67.12 -19.77,66.11"/>
    </edge>
    <edge id=":gneJ49_0" function="internal">
        <lane id=":gneJ49_0_0" index="0" speed="13.89" length="2.74" shape="-19.84,65.92 -18.87,68.49"/>
    </edge>
    <edge id=":gneJ49_1" function="internal">
        <lane id=":gneJ49_1_0" index="0" speed="13.89" length="0.45" shape="-15.74,67.84 -15.71,67.97 -15.69,68.06 -15.65,68.14 -15.59,68.26"/>
    </edge>
    <edge id=":gneJ5_0" function="internal">
        <lane id=":gneJ5_0_0" index="0" speed="13.89" length="2.23" shape="29.49,55.22 31.72,55.17"/>
    </edge>
    <edge id=":gneJ50_0" function="internal">
        <lane id=":gneJ50_0_0" index="0" speed="13.89" length="4.35" shape="-21.89,53.90 -19.36,57.44"/>
    </edge>
    <edge id=":gneJ51_0" function="internal">
        <lane id=":gneJ51_0_0" index="0" speed="13.89" length="2.48" shape="-19.90,52.08 -19.75,54.56"/>
    </edge>
    <edge id=":gneJ52_0" function="internal">
        <lane id=":gneJ52_0_0" index="0" speed="13.89" length="4.97" shape="-19.77,54.36 -21.35,49.64"/>
    </edge>
    <edge id=":gneJ52_1" function="internal">
        <lane id=":gneJ52_1_0" index="0" speed="4.29" length="6.51" shape="-19.41,50.31 -20.99,52.15 -21.85,52.65 -21.96,51.81 -21.35,49.64"/>
    </edge>
    <edge id=":gneJ53_0" function="internal">
        <lane id=":gneJ53_0_0" index="0" speed="6.95" length="4.25" shape="-14.13,43.25 -15.03,43.79 -15.78,44.49 -16.38,45.36 -16.83,46.39"/>
    </edge>
    <edge id=":gneJ53_1" function="internal">
        <lane id=":gneJ53_1_0" index="0" speed="3.80" length="5.01" shape="-14.13,43.25 -15.42,43.29 -16.39,42.48 -16.72,41.30 -16.07,40.26"/>
    </edge>
    <edge id=":gneJ53_2" function="internal">
        <lane id=":gneJ53_2_0" index="0" speed="7.43" length="4.36" shape="-14.23,43.11 -15.31,43.77 -15.96,44.38 -16.40,45.18 -16.83,46.39"/>
    </edge>
    <edge id=":gneJ53_3" function="internal">
        <lane id=":gneJ53_3_0" index="0" speed="9.74" length="6.54" shape="-19.86,45.34 -19.20,43.52 -18.57,42.32 -17.64,41.36 -16.07,40.26"/>
    </edge>
    <edge id=":gneJ54_0" function="internal">
        <lane id=":gneJ54_0_0" index="0" speed="13.89" length="0.76" shape="-12.68,41.98 -12.88,42.07 -13.01,42.16 -13.12,42.26 -13.26,42.44"/>
    </edge>
    <edge id=":gneJ54_1" function="internal">
        <lane id=":gneJ54_1_0" index="0" speed="13.89" length="2.27" shape="-15.99,40.20 -15.42,39.83 -15.03,39.58 -14.62,39.36 -14.02,39.07"/>
    </edge>
    <edge id=":gneJ55_0" function="internal">
        <lane id=":gneJ55_0_0" index="0" speed="13.89" length="2.34" shape="-8.61,40.23 -9.26,40.46 -9.71,40.62 -10.14,40.81 -10.77,41.10"/>
    </edge>
    <edge id=":gneJ55_1" function="internal">
        <lane id=":gneJ55_1_0" index="0" speed="13.89" length="2.34" shape="-8.61,40.23 -9.26,40.46 -9.70,40.64 -10.13,40.85 -10.73,41.18"/>
    </edge>
    <edge id=":gneJ55_2" function="internal">
        <lane id=":gneJ55_2_0" index="0" speed="13.89" length="2.66" shape="-12.11,38.19 -11.40,37.87 -10.90,37.65 -10.40,37.46 -9.65,37.20"/>
    </edge>
    <edge id=":gneJ55_3" function="internal">
        <lane id=":gneJ55_3_0" index="0" speed="3.67" length="2.30" shape="-12.11,38.19 -10.97,38.21 -10.20,39.07"/>
    </edge>
    <edge id=":gneJ55_4" function="internal">
        <lane id=":gneJ55_4_0" index="0" speed="3.67" length="2.35" shape="-10.20,39.07 -10.04,40.24 -10.73,41.18"/>
    </edge>
    <edge id=":gneJ56_0" function="internal">
        <lane id=":gneJ56_0_0" index="0" speed="13.89" length="2.26" shape="-4.87,38.97 -7.01,39.68"/>
    </edge>
    <edge id=":gneJ56_1" function="internal">
        <lane id=":gneJ56_1_0" index="0" speed="13.89" length="2.27" shape="-4.87,38.97 -5.50,39.18 -5.93,39.35 -6.35,39.55 -6.96,39.84"/>
    </edge>
    <edge id=":gneJ56_2" function="internal">
        <lane id=":gneJ56_2_0" index="0" speed="13.89" length="2.36" shape="-8.06,36.65 -5.81,35.91"/>
    </edge>
    <edge id=":gneJ56_3" function="internal">
        <lane id=":gneJ56_3_0" index="0" speed="3.72" length="2.33" shape="-8.06,36.65 -6.90,36.78 -6.21,37.72"/>
    </edge>
    <edge id=":gneJ56_4" function="internal">
        <lane id=":gneJ56_4_0" index="0" speed="3.72" length="2.42" shape="-6.21,37.72 -6.16,38.92 -6.96,39.84"/>
    </edge>
    <edge id=":gneJ57_0" function="internal">
        <lane id=":gneJ57_0_0" index="0" speed="13.89" length="7.24" shape="2.28,36.89 -4.67,38.91"/>
    </edge>
    <edge id=":gneJ57_1" function="internal">
        <lane id=":gneJ57_1_0" index="0" speed="13.89" length="7.25" shape="2.22,36.66 -4.67,38.91"/>
    </edge>
    <edge id=":gneJ57_2" function="internal">
        <lane id=":gneJ57_2_0" index="0" speed="3.19" length="2.96" shape="2.22,36.66 1.44,33.80"/>
    </edge>
    <edge id=":gneJ57_3" function="internal">
        <lane id=":gneJ57_3_0" index="0" speed="13.89" length="7.36" shape="-5.62,35.85 1.44,33.80"/>
    </edge>
    <edge id=":gneJ58_0" function="internal">
        <lane id=":gneJ58_0_0" index="0" speed="13.89" length="0.61" shape="3.58,36.50 3.41,36.57 3.30,36.61 3.18,36.64 3.01,36.69"/>
    </edge>
    <edge id=":gneJ58_1" function="internal">
        <lane id=":gneJ58_1_0" index="0" speed="13.89" length="0.20" shape="2.16,33.61 2.22,33.59 2.26,33.58 2.30,33.56 2.35,33.54"/>
    </edge>
    <edge id=":gneJ59_0" function="internal">
        <lane id=":gneJ59_0_0" index="0" speed="13.89" length="7.19" shape="10.96,33.90 8.90,34.49 7.51,34.93 6.14,35.44 4.17,36.25"/>
    </edge>
    <edge id=":gneJ59_1" function="internal">
        <lane id=":gneJ59_1_0" index="0" speed="13.89" length="7.20" shape="10.96,33.90 4.08,36.03"/>
    </edge>
    <edge id=":gneJ59_2" function="internal">
        <lane id=":gneJ59_2_0" index="0" speed="3.25" length="3.23" shape="10.96,33.90 10.06,30.80"/>
    </edge>
    <edge id=":gneJ59_3" function="internal">
        <lane id=":gneJ59_3_0" index="0" speed="13.89" length="7.19" shape="10.95,33.87 8.90,34.48 7.51,34.92 6.14,35.44 4.17,36.25"/>
    </edge>
    <edge id=":gneJ59_4" function="internal">
        <lane id=":gneJ59_4_0" index="0" speed="13.89" length="7.21" shape="10.95,33.87 4.08,36.03"/>
    </edge>
    <edge id=":gneJ59_5" function="internal">
        <lane id=":gneJ59_5_0" index="0" speed="13.89" length="7.55" shape="2.94,33.30 5.02,32.45 6.45,31.90 7.91,31.43 10.06,30.80"/>
    </edge>
    <edge id=":gneJ59_6" function="internal">
        <lane id=":gneJ59_6_0" index="0" speed="3.19" length="2.96" shape="2.94,33.30 4.08,36.03"/>
    </edge>
    <edge id=":gneJ6_0" function="internal">
        <lane id=":gneJ6_0_0" index="0" speed="13.89" length="0.29" shape="34.84,58.35 34.55,58.37"/>
    </edge>
    <edge id=":gneJ6_1" function="internal">
        <lane id=":gneJ6_1_0" index="0" speed="13.89" length="0.12" shape="34.38,55.17 34.42,55.17 34.44,55.17 34.46,55.17 34.50,55.16"/>
    </edge>
    <edge id=":gneJ60_0" function="internal">
        <lane id=":gneJ60_0_0" index="0" speed="13.89" length="0.26" shape="11.97,33.58 11.72,33.65"/>
    </edge>
    <edge id=":gneJ60_1" function="internal">
        <lane id=":gneJ60_1_0" index="0" speed="13.89" length="0.31" shape="10.83,30.58 11.13,30.49"/>
    </edge>
    <edge id=":gneJ61_0" function="internal">
        <lane id=":gneJ61_0_0" index="0" speed="13.89" length="6.74" shape="19.22,31.61 12.73,33.41"/>
    </edge>
    <edge id=":gneJ61_1" function="internal">
        <lane id=":gneJ61_1_0" index="0" speed="13.89" length="6.74" shape="19.22,31.61 12.72,33.38"/>
    </edge>
    <edge id=":gneJ61_2" function="internal">
        <lane id=":gneJ61_2_0" index="0" speed="13.89" length="6.75" shape="11.88,30.29 18.39,28.52"/>
    </edge>
    <edge id=":gneJ61_3" function="internal">
        <lane id=":gneJ61_3_0" index="0" speed="3.25" length="1.63" shape="11.88,30.29 12.31,31.86"/>
    </edge>
    <edge id=":gneJ61_4" function="internal">
        <lane id=":gneJ61_4_0" index="0" speed="3.25" length="1.60" shape="12.31,31.86 12.73,33.41"/>
    </edge>
    <edge id=":gneJ62_0" function="internal">
        <lane id=":gneJ62_0_0" index="0" speed="13.89" length="4.66" shape="23.96,30.52 19.42,31.56"/>
    </edge>
    <edge id=":gneJ62_1" function="internal">
        <lane id=":gneJ62_1_0" index="0" speed="13.89" length="6.25" shape="25.52,30.18 19.42,31.56"/>
    </edge>
    <edge id=":gneJ62_2" function="internal">
        <lane id=":gneJ62_2_0" index="0" speed="3.34" length="3.52" shape="25.52,30.18 23.39,27.37"/>
    </edge>
    <edge id=":gneJ62_3" function="internal">
        <lane id=":gneJ62_3_0" index="0" speed="13.89" length="4.93" shape="18.58,28.47 23.39,27.37"/>
    </edge>
    <edge id=":gneJ63_0" function="internal">
        <lane id=":gneJ63_0_0" index="0" speed="13.89" length="4.76" shape="28.83,29.56 24.16,30.48"/>
    </edge>
    <edge id=":gneJ63_1" function="internal">
        <lane id=":gneJ63_1_0" index="0" speed="13.89" length="6.41" shape="30.45,29.21 24.16,30.48"/>
    </edge>
    <edge id=":gneJ63_2" function="internal">
        <lane id=":gneJ63_2_0" index="0" speed="3.36" length="3.59" shape="30.45,29.21 28.16,26.43"/>
    </edge>
    <edge id=":gneJ63_3" function="internal">
        <lane id=":gneJ63_3_0" index="0" speed="13.89" length="4.66" shape="23.59,27.33 28.16,26.43"/>
    </edge>
    <edge id=":gneJ64_0" function="internal">
        <lane id=":gneJ64_0_0" index="0" speed="13.89" length="6.35" shape="35.26,28.30 29.02,29.52"/>
    </edge>
    <edge id=":gneJ64_1" function="internal">
        <lane id=":gneJ64_1_0" index="0" speed="13.89" length="8.01" shape="35.26,28.30 27.39,29.81"/>
    </edge>
    <edge id=":gneJ64_2" function="internal">
        <lane id=":gneJ64_2_0" index="0" speed="13.89" length="6.33" shape="28.36,26.39 34.55,25.05"/>
    </edge>
    <edge id=":gneJ64_3" function="internal">
        <lane id=":gneJ64_3_0" index="0" speed="3.35" length="3.55" shape="28.36,26.39 27.39,29.81"/>
    </edge>
    <edge id=":gneJ65_0" function="internal">
        <lane id=":gneJ65_0_0" index="0" speed="13.89" length="0.10" shape="35.82,28.05 35.91,28.03"/>
    </edge>