<?xml version="1.0" encoding="UTF-8"?>

<!-- generated on 02/06/22 15:28:07 by Eclipse SUMO netedit Version 1.8.0
<configuration xmlns:xsi="http://www.w3.org/2001/XMLSchema-instance" xsi:noNamespaceSchemaLocation="http://sumo.dlr.de/xsd/netconvertConfiguration.xsd">

    <input>
        <sumo-net-file value="C:\Users\Local_Man\Desktop\Stolen%20Music\school%20stuff%20for%20college\RESEARCH\coding\SUMO\K-shortest%20partly%20and%20fully%20disjoint%20paths%20testing\configurations\test_vehicle_only_4corners.net.xml"/>
    </input>

    <output>
        <output-file value="C:\Users\Local_Man\Desktop\Stolen%20Music\school%20stuff%20for%20college\RESEARCH\coding\SUMO\K-shortest%20partly%20and%20fully%20disjoint%20paths%20testing\configurations\test_vehicle_only_4corners_old_and_wrong.net.xml"/>
        <output.street-names value="true"/>
    </output>

    <processing>
        <geometry.min-radius.fix.railways value="false"/>
        <geometry.max-grade.fix value="false"/>
        <offset.disable-normalization value="true"/>
        <lefthand value="false"/>
    </processing>

    <junctions>
        <no-turnarounds value="true"/>
        <junctions.corner-detail value="5"/>
        <junctions.limit-turn-speed value="5.5"/>
        <rectangular-lane-cut value="false"/>
    </junctions>

    <pedestrian>
        <walkingareas value="false"/>
    </pedestrian>

    <report>
        <aggregate-warnings value="5"/>
    </report>

</configuration>
-->

<net version="1.6" junctionCornerDetail="5" limitTurnSpeed="5.50" xmlns:xsi="http://www.w3.org/2001/XMLSchema-instance" xsi:noNamespaceSchemaLocation="http://sumo.dlr.de/xsd/net_file.xsd">

    <location netOffset="-270218.49,-3285380.38" convBoundary="2423.41,3177.81,3886.36,4509.28" origBoundary="-95.391558,29.678217,-95.274540,29.753045" projParameter="+proj=utm +zone=15 +ellps=WGS84 +datum=WGS84 +units=m +no_defs"/>

    <type id="highway.bridleway" priority="1" numLanes="1" speed="2.78" allow="pedestrian" oneway="1" width="2.00"/>
    <type id="highway.bus_guideway" priority="1" numLanes="1" speed="27.78" allow="bus" oneway="1"/>
    <type id="highway.cycleway" priority="1" numLanes="1" speed="8.33" allow="bicycle" oneway="1" width="1.00"/>
    <type id="highway.footway" priority="1" numLanes="1" speed="2.78" allow="pedestrian" oneway="1" width="2.00"/>
    <type id="highway.ford" priority="1" numLanes="1" speed="2.78" allow="army" oneway="1"/>
    <type id="highway.living_street" priority="2" numLanes="1" speed="2.78" disallow="tram rail_urban rail rail_electric rail_fast ship" oneway="1"/>
    <type id="highway.motorway" priority="14" numLanes="2" speed="39.44" allow="private emergency authority army vip passenger hov taxi bus coach delivery truck trailer motorcycle evehicle custom1 custom2" oneway="1"/>
    <type id="highway.motorway_link" priority="9" numLanes="1" speed="22.22" allow="private emergency authority army vip passenger hov taxi bus coach delivery truck trailer motorcycle evehicle custom1 custom2" oneway="1"/>
    <type id="highway.path" priority="1" numLanes="1" speed="2.78" allow="pedestrian bicycle" oneway="1" width="2.00"/>
    <type id="highway.pedestrian" priority="1" numLanes="1" speed="2.78" allow="pedestrian" oneway="1" width="2.00"/>
    <type id="highway.primary" priority="12" numLanes="2" speed="27.78" disallow="tram rail_urban rail rail_electric rail_fast ship" oneway="1"/>
    <type id="highway.primary_link" priority="7" numLanes="1" speed="22.22" disallow="tram rail_urban rail rail_electric rail_fast ship" oneway="1"/>
    <type id="highway.raceway" priority="15" numLanes="2" speed="83.33" allow="vip" oneway="1"/>
    <type id="highway.residential" priority="3" numLanes="1" speed="13.89" disallow="tram rail_urban rail rail_electric rail_fast ship" oneway="1"/>
    <type id="highway.secondary" priority="11" numLanes="1" speed="27.78" disallow="tram rail_urban rail rail_electric rail_fast ship" oneway="1"/>
    <type id="highway.secondary_link" priority="6" numLanes="1" speed="22.22" disallow="tram rail_urban rail rail_electric rail_fast ship" oneway="1"/>
    <type id="highway.service" priority="1" numLanes="1" speed="5.56" allow="pedestrian delivery bicycle" oneway="1"/>
    <type id="highway.stairs" priority="1" numLanes="1" speed="1.39" allow="pedestrian" oneway="1" width="2.00"/>
    <type id="highway.step" priority="1" numLanes="1" speed="1.39" allow="pedestrian" oneway="1" width="2.00"/>
    <type id="highway.steps" priority="1" numLanes="1" speed="1.39" allow="pedestrian" oneway="1" width="2.00"/>
    <type id="highway.tertiary" priority="10" numLanes="1" speed="22.22" disallow="tram rail_urban rail rail_electric rail_fast ship" oneway="1"/>
    <type id="highway.tertiary_link" priority="5" numLanes="1" speed="22.22" disallow="tram rail_urban rail rail_electric rail_fast ship" oneway="1"/>
    <type id="highway.track" priority="1" numLanes="1" speed="5.56" allow="pedestrian motorcycle moped bicycle" oneway="1"/>
    <type id="highway.trunk" priority="13" numLanes="2" speed="27.78" disallow="pedestrian bicycle tram rail_urban rail rail_electric rail_fast ship" oneway="1"/>
    <type id="highway.trunk_link" priority="8" numLanes="1" speed="22.22" disallow="pedestrian bicycle tram rail_urban rail rail_electric rail_fast ship" oneway="1"/>
    <type id="highway.unclassified" priority="4" numLanes="1" speed="13.89" disallow="tram rail_urban rail rail_electric rail_fast ship" oneway="1"/>
    <type id="highway.unsurfaced" priority="1" numLanes="1" speed="8.33" disallow="tram rail_urban rail rail_electric rail_fast ship" oneway="1"/>
    <type id="railway.highspeed" priority="21" numLanes="1" speed="69.44" allow="rail_fast" oneway="1"/>
    <type id="railway.light_rail" priority="19" numLanes="1" speed="27.78" allow="rail_urban" oneway="1"/>
    <type id="railway.preserved" priority="16" numLanes="1" speed="27.78" allow="rail" oneway="1"/>
    <type id="railway.rail" priority="20" numLanes="1" speed="44.44" allow="rail" oneway="1"/>
    <type id="railway.subway" priority="18" numLanes="1" speed="27.78" allow="rail_urban" oneway="1"/>
    <type id="railway.tram" priority="17" numLanes="1" speed="13.89" allow="tram" oneway="1"/>

    <edge id=":151768778_0" function="internal">
        <lane id=":151768778_0_0" index="0" disallow="tram rail_urban rail rail_electric rail_fast ship" speed="27.78" length="8.71" shape="2973.87,4355.94 2971.41,4356.33 2969.60,4355.84 2967.79,4355.38 2965.36,4355.82"/>
    </edge>
    <edge id=":151768778_1" function="internal">
        <lane id=":151768778_1_0" index="0" disallow="tram rail_urban rail rail_electric rail_fast ship" speed="27.78" length="8.85" shape="2962.96,4349.89 2965.44,4349.43 2967.27,4349.88 2969.12,4350.35 2971.62,4349.95"/>
    </edge>
    <edge id=":151927016_0" function="internal">
        <lane id=":151927016_0_0" index="0" disallow="tram rail_urban rail rail_electric rail_fast ship" speed="25.00" length="11.98" shape="3459.32,4182.60 3462.43,4183.20 3464.91,4183.60 3467.56,4183.64 3471.19,4183.16"/>
    </edge>
    <edge id=":151927016_1" function="internal">
        <lane id=":151927016_1_0" index="0" disallow="tram rail_urban rail rail_electric rail_fast ship" speed="27.78" length="12.41" shape="3459.46,4187.33 3462.99,4186.24 3465.30,4185.13 3467.62,4184.08 3471.19,4183.16"/>
        <lane id=":151927016_1_1" index="1" disallow="tram rail_urban rail rail_electric rail_fast ship" speed="27.78" length="12.41" shape="3460.19,4190.44 3463.67,4189.36 3465.95,4188.27 3468.24,4187.22 3471.76,4186.31"/>
    </edge>
    <edge id=":151945840_0" function="internal">
        <lane id=":151945840_0_0" index="0" disallow="tram rail_urban rail rail_electric rail_fast ship" speed="21.20" length="9.46" shape="3443.08,4151.15 3442.21,4153.77 3442.04,4155.67 3442.19,4157.64 3442.29,4160.46"/>
    </edge>
    <edge id=":151945840_1" function="internal">
        <lane id=":151945840_1_0" index="0" disallow="tram rail_urban rail rail_electric rail_fast ship" speed="27.78" length="10.37" shape="3440.12,4149.93 3439.29,4152.78 3439.23,4154.86 3439.28,4156.99 3438.76,4159.95"/>
        <lane id=":151945840_1_1" index="1" disallow="tram rail_urban rail rail_electric rail_fast ship" speed="27.78" length="10.37" shape="3437.17,4148.71 3436.29,4151.66 3436.20,4153.82 3436.23,4156.02 3435.68,4159.09"/>
    </edge>
    <edge id=":152234278_0" function="internal">
        <lane id=":152234278_0_0" index="0" disallow="tram rail_urban rail rail_electric rail_fast ship" speed="6.51" length="8.96" shape="3281.26,3877.64 3280.50,3875.31 3279.17,3873.78 3277.28,3873.05 3274.83,3873.11"/>
    </edge>
    <edge id=":152234278_1" function="internal">
        <lane id=":152234278_1_0" index="0" disallow="tram rail_urban rail rail_electric rail_fast ship" speed="22.22" length="14.26" shape="3281.26,3877.64 3278.96,3863.57"/>
    </edge>
    <edge id=":152234278_2" function="internal">
        <lane id=":152234278_2_0" index="0" disallow="tram rail_urban rail rail_electric rail_fast ship" speed="3.65" length="2.34" shape="3281.26,3877.64 3281.84,3876.32 3282.56,3875.78"/>
    </edge>
    <edge id=":152234278_9" function="internal">
        <lane id=":152234278_9_0" index="0" disallow="tram rail_urban rail rail_electric rail_fast ship" speed="3.65" length="2.34" shape="3282.56,3875.78 3283.41,3876.03 3284.41,3877.07"/>
    </edge>
    <edge id=":152234278_3" function="internal">
        <lane id=":152234278_3_0" index="0" disallow="tram rail_urban rail rail_electric rail_fast ship" speed="22.22" length="14.16" shape="3282.13,3863.10 3284.41,3877.07"/>
    </edge>
    <edge id=":152234278_4" function="internal">
        <lane id=":152234278_4_0" index="0" disallow="tram rail_urban rail rail_electric rail_fast ship" speed="8.02" length="5.74" shape="3282.13,3863.10 3282.15,3866.94 3281.42,3868.70"/>
    </edge>
    <edge id=":152234278_5" function="internal">
        <lane id=":152234278_5_0" index="0" disallow="tram rail_urban rail rail_electric rail_fast ship" speed="3.65" length="2.34" shape="3282.13,3863.10 3281.51,3864.41 3280.78,3864.92"/>
    </edge>
    <edge id=":152234278_10" function="internal">
        <lane id=":152234278_10_0" index="0" disallow="tram rail_urban rail rail_electric rail_fast ship" speed="8.02" length="8.32" shape="3281.42,3868.70 3280.93,3869.89 3278.49,3871.94 3274.83,3873.11"/>
    </edge>
    <edge id=":152234278_11" function="internal">
        <lane id=":152234278_11_0" index="0" disallow="tram rail_urban rail rail_electric rail_fast ship" speed="3.65" length="2.34" shape="3280.78,3864.92 3279.93,3864.64 3278.96,3863.57"/>
    </edge>
    <edge id=":152234278_6" function="internal">
        <lane id=":152234278_6_0" index="0" disallow="tram rail_urban rail rail_electric rail_fast ship" speed="6.53" length="8.98" shape="3274.30,3869.95 3276.64,3869.21 3278.20,3867.90 3278.97,3866.02 3278.96,3863.57"/>
    </edge>
    <edge id=":152234278_7" function="internal">
        <lane id=":152234278_7_0" index="0" disallow="tram rail_urban rail rail_electric rail_fast ship" speed="8.00" length="14.07" shape="3274.30,3869.95 3278.15,3869.86 3281.11,3871.01 3283.20,3873.42 3284.41,3877.07"/>
    </edge>
    <edge id=":152234278_8" function="internal">
        <lane id=":152234278_8_0" index="0" disallow="tram rail_urban rail rail_electric rail_fast ship" speed="3.65" length="4.67" shape="3274.30,3869.95 3275.61,3870.54 3276.14,3871.26 3275.88,3872.12 3274.83,3873.11"/>
    </edge>
    <edge id=":152234288_0" function="internal">
        <lane id=":152234288_0_0" index="0" disallow="tram rail_urban rail rail_electric rail_fast ship" speed="6.21" length="9.05" shape="3259.93,3732.72 3259.07,3730.34 3257.67,3728.92 3255.73,3728.47 3253.25,3728.98"/>
    </edge>
    <edge id=":152234288_1" function="internal">
        <lane id=":152234288_1_0" index="0" disallow="tram rail_urban rail rail_electric rail_fast ship" speed="22.22" length="16.95" shape="3259.93,3732.72 3256.85,3716.05"/>
    </edge>
    <edge id=":152234288_2" function="internal">
        <lane id=":152234288_2_0" index="0" disallow="tram rail_urban rail rail_electric rail_fast ship" speed="3.65" length="2.34" shape="3259.93,3732.72 3260.47,3731.38 3261.17,3730.83"/>
    </edge>
    <edge id=":152234288_14" function="internal">
        <lane id=":152234288_14_0" index="0" disallow="tram rail_urban rail rail_electric rail_fast ship" speed="3.65" length="2.34" shape="3261.17,3730.83 3262.04,3731.06 3263.06,3732.08"/>
    </edge>
    <edge id=":152234288_3" function="internal">
        <lane id=":152234288_3_0" index="0" disallow="tram rail_urban rail rail_electric rail_fast ship" speed="9.35" length="13.27" shape="3268.31,3720.71 3265.51,3723.23 3263.70,3725.96 3262.89,3728.91 3263.06,3732.08"/>
    </edge>
    <edge id=":152234288_4" function="internal">
        <lane id=":152234288_4_0" index="0" disallow="tram rail_urban rail rail_electric rail_fast ship" speed="18.06" length="17.22" shape="3268.31,3720.71 3264.91,3723.01 3261.03,3725.31 3257.02,3727.39 3253.25,3728.98"/>
    </edge>
    <edge id=":152234288_5" function="internal">
        <lane id=":152234288_5_0" index="0" disallow="tram rail_urban rail rail_electric rail_fast ship" speed="7.43" length="7.09" shape="3268.31,3720.71 3264.03,3723.03 3261.81,3723.03"/>
    </edge>
    <edge id=":152234288_6" function="internal">
        <lane id=":152234288_6_0" index="0" disallow="tram rail_urban rail rail_electric rail_fast ship" speed="3.65" length="2.34" shape="3268.31,3720.71 3266.87,3720.77 3266.07,3720.37"/>
    </edge>
    <edge id=":152234288_15" function="internal">
        <lane id=":152234288_15_0" index="0" disallow="tram rail_urban rail rail_electric rail_fast ship" speed="7.43" length="9.32" shape="3261.81,3723.03 3260.69,3723.03 3258.30,3720.70 3256.85,3716.05"/>
    </edge>
    <edge id=":152234288_16" function="internal">
        <lane id=":152234288_16_0" index="0" disallow="tram rail_urban rail rail_electric rail_fast ship" speed="3.65" length="2.34" shape="3266.07,3720.37 3265.92,3719.48 3266.42,3718.13"/>
    </edge>
    <edge id=":152234288_7" function="internal">
        <lane id=":152234288_7_0" index="0" disallow="tram rail_urban rail rail_electric rail_fast ship" speed="22.22" length="16.84" shape="3260.00,3715.52 3263.06,3732.08"/>
    </edge>
    <edge id=":152234288_8" function="internal">
        <lane id=":152234288_8_0" index="0" disallow="tram rail_urban rail rail_electric rail_fast ship" speed="9.23" length="6.96" shape="3260.00,3715.52 3260.24,3720.26 3259.65,3722.40"/>
    </edge>
    <edge id=":152234288_9" function="internal">
        <lane id=":152234288_9_0" index="0" disallow="tram rail_urban rail rail_electric rail_fast ship" speed="3.65" length="2.34" shape="3260.00,3715.52 3259.41,3716.84 3258.69,3717.37"/>
    </edge>
    <edge id=":152234288_17" function="internal">
        <lane id=":152234288_17_0" index="0" disallow="tram rail_urban rail rail_electric rail_fast ship" speed="9.23" length="9.59" shape="3259.65,3722.40 3259.19,3724.08 3256.86,3726.98 3253.25,3728.98"/>
    </edge>
    <edge id=":152234288_18" function="internal">
        <lane id=":152234288_18_0" index="0" disallow="tram rail_urban rail rail_electric rail_fast ship" speed="3.65" length="2.34" shape="3258.69,3717.37 3257.84,3717.10 3256.85,3716.05"/>
    </edge>
    <edge id=":152234288_10" function="internal">
        <lane id=":152234288_10_0" index="0" disallow="tram rail_urban rail rail_electric rail_fast ship" speed="7.95" length="12.05" shape="3252.16,3725.97 3254.70,3724.54 3256.33,3722.41 3257.04,3719.58 3256.85,3716.05"/>
    </edge>
    <edge id=":152234288_11" function="internal">
        <lane id=":152234288_11_0" index="0" disallow="tram rail_urban rail rail_electric rail_fast ship" speed="18.06" length="16.32" shape="3252.16,3725.97 3255.80,3724.44 3259.54,3722.52 3263.15,3720.36 3266.42,3718.13"/>
    </edge>
    <edge id=":152234288_12" function="internal">
        <lane id=":152234288_12_0" index="0" disallow="tram rail_urban rail rail_electric rail_fast ship" speed="7.76" length="5.33" shape="3252.16,3725.97 3256.21,3725.13 3257.37,3725.40"/>
    </edge>
    <edge id=":152234288_13" function="internal">
        <lane id=":152234288_13_0" index="0" disallow="tram rail_urban rail rail_electric rail_fast ship" speed="3.65" length="2.34" shape="3252.16,3725.97 3253.56,3726.32 3254.21,3726.93"/>
    </edge>
    <edge id=":152234288_19" function="internal">
        <lane id=":152234288_19_0" index="0" disallow="tram rail_urban rail rail_electric rail_fast ship" speed="7.76" length="9.45" shape="3257.37,3725.40 3259.38,3725.87 3261.66,3728.19 3263.06,3732.08"/>
    </edge>
    <edge id=":152234288_20" function="internal">
        <lane id=":152234288_20_0" index="0" disallow="tram rail_urban rail rail_electric rail_fast ship" speed="3.65" length="2.34" shape="3254.21,3726.93 3254.11,3727.82 3253.25,3728.98"/>
    </edge>
    <edge id=":152234297_0" function="internal">
        <lane id=":152234297_0_0" index="0" disallow="tram rail_urban rail rail_electric rail_fast ship" speed="22.22" length="0.30" shape="3221.65,3569.28 3221.54,3569.00"/>
    </edge>
    <edge id=":152234297_1" function="internal">
        <lane id=":152234297_1_0" index="0" disallow="tram rail_urban rail rail_electric rail_fast ship" speed="3.65" length="2.34" shape="3221.65,3569.28 3221.97,3567.87 3222.57,3567.22"/>
    </edge>
    <edge id=":152234297_4" function="internal">
        <lane id=":152234297_4_0" index="0" disallow="tram rail_urban rail rail_electric rail_fast ship" speed="3.65" length="2.34" shape="3222.57,3567.22 3223.46,3567.30 3224.64,3568.14"/>
    </edge>
    <edge id=":152234297_2" function="internal">
        <lane id=":152234297_2_0" index="0" disallow="tram rail_urban rail rail_electric rail_fast ship" speed="22.22" length="0.30" shape="3224.53,3567.86 3224.64,3568.14"/>
    </edge>
    <edge id=":152234297_3" function="internal">
        <lane id=":152234297_3_0" index="0" disallow="tram rail_urban rail rail_electric rail_fast ship" speed="3.65" length="2.34" shape="3224.53,3567.86 3224.21,3569.26 3223.61,3569.92"/>
    </edge>
    <edge id=":152234297_5" function="internal">
        <lane id=":152234297_5_0" index="0" disallow="tram rail_urban rail rail_electric rail_fast ship" speed="3.65" length="2.34" shape="3223.61,3569.92 3222.72,3569.84 3221.54,3569.00"/>
    </edge>
    <edge id=":152234303_0" function="internal">
        <lane id=":152234303_0_0" index="0" disallow="tram rail_urban rail rail_electric rail_fast ship" speed="22.22" length="14.21" shape="3145.61,3367.81 3140.50,3354.55"/>
    </edge>
    <edge id=":152234303_1" function="internal">
        <lane id=":152234303_1_0" index="0" disallow="tram rail_urban rail rail_electric rail_fast ship" speed="8.00" length="5.80" shape="3145.61,3367.81 3144.79,3364.04 3145.14,3362.13"/>
    </edge>
    <edge id=":152234303_2" function="internal">
        <lane id=":152234303_2_0" index="0" disallow="tram rail_urban rail rail_electric rail_fast ship" speed="3.65" length="2.34" shape="3145.61,3367.81 3145.94,3366.41 3146.55,3365.75"/>
    </edge>
    <edge id=":152234303_9" function="internal">
        <lane id=":152234303_9_0" index="0" disallow="tram rail_urban rail rail_electric rail_fast ship" speed="8.00" length="8.30" shape="3145.14,3362.13 3145.36,3360.90 3147.33,3358.40 3150.70,3356.52"/>
    </edge>
    <edge id=":152234303_10" function="internal">
        <lane id=":152234303_10_0" index="0" disallow="tram rail_urban rail rail_electric rail_fast ship" speed="3.65" length="2.34" shape="3146.55,3365.75 3147.44,3365.85 3148.61,3366.69"/>
    </edge>
    <edge id=":152234303_3" function="internal">
        <lane id=":152234303_3_0" index="0" disallow="tram rail_urban rail rail_electric rail_fast ship" speed="6.51" length="8.97" shape="3151.85,3359.51 3149.71,3360.70 3148.45,3362.30 3148.09,3364.29 3148.61,3366.69"/>
    </edge>
    <edge id=":152234303_4" function="internal">
        <lane id=":152234303_4_0" index="0" disallow="tram rail_urban rail rail_electric rail_fast ship" speed="8.01" length="14.09" shape="3151.85,3359.51 3148.09,3360.37 3144.95,3359.83 3142.41,3357.89 3140.50,3354.55"/>
    </edge>
    <edge id=":152234303_5" function="internal">
        <lane id=":152234303_5_0" index="0" disallow="tram rail_urban rail rail_electric rail_fast ship" speed="3.65" length="4.67" shape="3151.85,3359.51 3150.44,3359.19 3149.78,3358.59 3149.87,3357.70 3150.70,3356.52"/>
    </edge>
    <edge id=":152234303_6" function="internal">
        <lane id=":152234303_6_0" index="0" disallow="tram rail_urban rail rail_electric rail_fast ship" speed="6.52" length="8.98" shape="3143.47,3353.36 3144.69,3355.49 3146.30,3356.73 3148.31,3357.07 3150.70,3356.52"/>
    </edge>
    <edge id=":152234303_7" function="internal">
        <lane id=":152234303_7_0" index="0" disallow="tram rail_urban rail rail_electric rail_fast ship" speed="22.22" length="14.29" shape="3143.47,3353.36 3148.61,3366.69"/>
    </edge>
    <edge id=":152234303_8" function="internal">
        <lane id=":152234303_8_0" index="0" disallow="tram rail_urban rail rail_electric rail_fast ship" speed="3.65" length="2.34" shape="3143.47,3353.36 3143.17,3354.77 3142.58,3355.44"/>
    </edge>
    <edge id=":152234303_11" function="internal">
        <lane id=":152234303_11_0" index="0" disallow="tram rail_urban rail rail_electric rail_fast ship" speed="3.65" length="2.34" shape="3142.58,3355.44 3141.68,3355.37 3140.50,3354.55"/>
    </edge>
    <edge id=":152234306_0" function="internal">
        <lane id=":152234306_0_0" index="0" disallow="tram rail_urban rail rail_electric rail_fast ship" speed="22.22" length="0.31" shape="3126.57,3319.60 3126.45,3319.31"/>
    </edge>
    <edge id=":152234306_1" function="internal">
        <lane id=":152234306_1_0" index="0" disallow="tram rail_urban rail rail_electric rail_fast ship" speed="3.65" length="2.34" shape="3126.57,3319.60 3126.87,3318.19 3127.46,3317.53"/>
    </edge>
    <edge id=":152234306_4" function="internal">
        <lane id=":152234306_4_0" index="0" disallow="tram rail_urban rail rail_electric rail_fast ship" speed="3.65" length="2.34" shape="3127.46,3317.53 3128.35,3317.60 3129.54,3318.42"/>
    </edge>
    <edge id=":152234306_2" function="internal">
        <lane id=":152234306_2_0" index="0" disallow="tram rail_urban rail rail_electric rail_fast ship" speed="22.22" length="0.26" shape="3129.45,3318.18 3129.54,3318.42"/>
    </edge>
    <edge id=":152234306_3" function="internal">
        <lane id=":152234306_3_0" index="0" disallow="tram rail_urban rail rail_electric rail_fast ship" speed="3.65" length="2.34" shape="3129.45,3318.18 3129.12,3319.59 3128.52,3320.24"/>
    </edge>
    <edge id=":152234306_5" function="internal">
        <lane id=":152234306_5_0" index="0" disallow="tram rail_urban rail rail_electric rail_fast ship" speed="3.65" length="2.34" shape="3128.52,3320.24 3127.63,3320.15 3126.45,3319.31"/>
    </edge>
    <edge id=":152363016_0" function="internal">
        <lane id=":152363016_0_0" index="0" disallow="tram rail_urban rail rail_electric rail_fast ship" speed="6.89" length="9.62" shape="2740.97,3807.63 2738.81,3806.45 2736.68,3806.27 2734.56,3807.07 2732.47,3808.87"/>
    </edge>
    <edge id=":152363016_1" function="internal">
        <lane id=":152363016_1_0" index="0" disallow="tram rail_urban rail rail_electric rail_fast ship" speed="22.22" length="14.52" shape="2740.97,3807.63 2729.22,3799.10"/>
    </edge>
    <edge id=":152363016_2" function="internal">
        <lane id=":152363016_2_0" index="0" disallow="tram rail_urban rail rail_electric rail_fast ship" speed="3.65" length="2.34" shape="2740.97,3807.63 2740.51,3806.26 2740.68,3805.38"/>
    </edge>
    <edge id=":152363016_9" function="internal">
        <lane id=":152363016_9_0" index="0" disallow="tram rail_urban rail rail_electric rail_fast ship" speed="3.65" length="2.34" shape="2740.68,3805.38 2741.48,3804.99 2742.92,3805.09"/>
    </edge>
    <edge id=":152363016_3" function="internal">
        <lane id=":152363016_3_0" index="0" disallow="tram rail_urban rail rail_electric rail_fast ship" speed="22.22" length="14.70" shape="2731.03,3796.46 2742.92,3805.09"/>
    </edge>
    <edge id=":152363016_4" function="internal">
        <lane id=":152363016_4_0" index="0" disallow="tram rail_urban rail rail_electric rail_fast ship" speed="7.78" length="6.26" shape="2731.03,3796.46 2734.05,3799.25 2734.88,3801.23"/>
    </edge>
    <edge id=":152363016_5" function="internal">
        <lane id=":152363016_5_0" index="0" disallow="tram rail_urban rail rail_electric rail_fast ship" speed="3.65" length="2.34" shape="2731.03,3796.46 2731.56,3797.80 2731.44,3798.68"/>
    </edge>
    <edge id=":152363016_10" function="internal">
        <lane id=":152363016_10_0" index="0" disallow="tram rail_urban rail rail_electric rail_fast ship" speed="7.78" length="8.48" shape="2734.88,3801.23 2735.30,3802.25 2734.77,3805.46 2732.47,3808.87"/>
    </edge>
    <edge id=":152363016_11" function="internal">
        <lane id=":152363016_11_0" index="0" disallow="tram rail_urban rail rail_electric rail_fast ship" speed="3.65" length="2.34" shape="2731.44,3798.68 2730.66,3799.12 2729.22,3799.10"/>
    </edge>
    <edge id=":152363016_6" function="internal">
        <lane id=":152363016_6_0" index="0" disallow="tram rail_urban rail rail_electric rail_fast ship" speed="6.23" length="9.05" shape="2730.10,3806.72 2731.52,3804.62 2731.84,3802.65 2731.07,3800.81 2729.22,3799.10"/>
    </edge>
    <edge id=":152363016_7" function="internal">
        <lane id=":152363016_7_0" index="0" disallow="tram rail_urban rail rail_electric rail_fast ship" speed="8.32" length="14.48" shape="2730.10,3806.72 2733.21,3804.08 2736.38,3802.93 2739.62,3803.27 2742.92,3805.09"/>
    </edge>
    <edge id=":152363016_8" function="internal">
        <lane id=":152363016_8_0" index="0" disallow="tram rail_urban rail rail_electric rail_fast ship" speed="3.65" length="4.67" shape="2730.10,3806.72 2731.50,3806.37 2732.36,3806.61 2732.68,3807.44 2732.47,3808.87"/>
    </edge>
    <edge id=":152363034_0" function="internal">
        <lane id=":152363034_0_0" index="0" disallow="tram rail_urban rail rail_electric rail_fast ship" speed="6.51" length="8.96" shape="2930.84,3924.71 2928.40,3924.45 2926.46,3925.02 2925.01,3926.43 2924.05,3928.69"/>
    </edge>
    <edge id=":152363034_1" function="internal">
        <lane id=":152363034_1_0" index="0" disallow="tram rail_urban rail rail_electric rail_fast ship" speed="22.22" length="14.17" shape="2930.84,3924.71 2917.27,3920.64"/>
    </edge>
    <edge id=":152363034_2" function="internal">
        <lane id=":152363034_2_0" index="0" disallow="tram rail_urban rail rail_electric rail_fast ship" speed="3.65" length="2.34" shape="2930.84,3924.71 2929.88,3923.64 2929.69,3922.76"/>
    </edge>
    <edge id=":152363034_9" function="internal">
        <lane id=":152363034_9_0" index="0" disallow="tram rail_urban rail rail_electric rail_fast ship" speed="3.65" length="2.34" shape="2929.69,3922.76 2930.27,3922.09 2931.63,3921.61"/>
    </edge>
    <edge id=":152363034_3" function="internal">
        <lane id=":152363034_3_0" index="0" disallow="tram rail_urban rail rail_electric rail_fast ship" speed="22.22" length="13.90" shape="2918.32,3917.61 2931.63,3921.61"/>
    </edge>
    <edge id=":152363034_4" function="internal">
        <lane id=":152363034_4_0" index="0" disallow="tram rail_urban rail rail_electric rail_fast ship" speed="8.17" length="5.42" shape="2918.32,3917.61 2921.66,3919.34 2922.74,3920.61"/>
    </edge>
    <edge id=":152363034_5" function="internal">
        <lane id=":152363034_5_0" index="0" disallow="tram rail_urban rail rail_electric rail_fast ship" speed="3.65" length="2.34" shape="2918.32,3917.61 2919.19,3918.76 2919.31,3919.65"/>
    </edge>
    <edge id=":152363034_10" function="internal">
        <lane id=":152363034_10_0" index="0" disallow="tram rail_urban rail rail_electric rail_fast ship" speed="8.17" length="8.57" shape="2922.74,3920.61 2923.73,3921.76 2924.52,3924.88 2924.05,3928.69"/>
    </edge>
    <edge id=":152363034_11" function="internal">
        <lane id=":152363034_11_0" index="0" disallow="tram rail_urban rail rail_electric rail_fast ship" speed="3.65" length="2.34" shape="2919.31,3919.65 2918.67,3920.27 2917.27,3920.64"/>
    </edge>
    <edge id=":152363034_6" function="internal">
        <lane id=":152363034_6_0" index="0" disallow="tram rail_urban rail rail_electric rail_fast ship" speed="6.70" length="9.11" shape="2920.95,3927.86 2921.27,3925.37 2920.76,3923.34 2919.43,3921.76 2917.27,3920.64"/>
    </edge>
    <edge id=":152363034_7" function="internal">
        <lane id=":152363034_7_0" index="0" disallow="tram rail_urban rail rail_electric rail_fast ship" speed="8.00" length="14.07" shape="2920.95,3927.86 2922.46,3924.32 2924.75,3922.10 2927.80,3921.19 2931.63,3921.61"/>
    </edge>
    <edge id=":152363034_8" function="internal">
        <lane id=":152363034_8_0" index="0" disallow="tram rail_urban rail rail_electric rail_fast ship" speed="3.65" length="4.67" shape="2920.95,3927.86 2922.04,3926.91 2922.91,3926.73 2923.58,3927.32 2924.05,3928.69"/>
    </edge>
    <edge id=":152363050_0" function="internal">
        <lane id=":152363050_0_0" index="0" disallow="tram rail_urban rail rail_electric rail_fast ship" speed="7.11" length="9.71" shape="3076.84,3928.31 3075.57,3925.84 3073.92,3924.22 3071.87,3923.47 3069.44,3923.58"/>
    </edge>