<?xml version="1.0" encoding="UTF-8"?>

<!-- generated on 01/31/22 17:11:44 by Eclipse SUMO netedit Version 1.8.0
<configuration xmlns:xsi="http://www.w3.org/2001/XMLSchema-instance" xsi:noNamespaceSchemaLocation="http://sumo.dlr.de/xsd/netconvertConfiguration.xsd">

    <input>
        <sumo-net-file value="C:\Users\Local_Man\Desktop\Stolen%20Music\school%20stuff%20for%20college\RESEARCH\coding\SUMO\K-shortest%20partly%20and%20fully%20disjoint%20paths%20testing\configurations\The_Small_Grid.net.xml"/>
    </input>

    <output>
        <output-file value="C:\Users\Local_Man\Desktop\Stolen%20Music\school%20stuff%20for%20college\RESEARCH\coding\SUMO\K-shortest%20partly%20and%20fully%20disjoint%20paths%20testing\configurations\The_Small_Grid2.net.xml"/>
    </output>

    <processing>
        <geometry.min-radius.fix.railways value="false"/>
        <geometry.max-grade.fix value="false"/>
        <offset.disable-normalization value="true"/>
        <lefthand value="false"/>
    </processing>

    <junctions>
        <no-turnarounds value="true"/>
        <junctions.corner-detail value="5"/>
        <junctions.limit-turn-speed value="5.5"/>
        <rectangular-lane-cut value="false"/>
    </junctions>

    <pedestrian>
        <walkingareas value="false"/>
    </pedestrian>

    <report>
        <aggregate-warnings value="5"/>
    </report>

</configuration>
-->

<net version="1.6" junctionCornerDetail="5" limitTurnSpeed="5.50" xmlns:xsi="http://www.w3.org/2001/XMLSchema-instance" xsi:noNamespaceSchemaLocation="http://sumo.dlr.de/xsd/net_file.xsd">

    <location netOffset="0.00,0.00" convBoundary="-35.83,-118.88,245.37,112.30" origBoundary="-10000000000.00,-10000000000.00,10000000000.00,10000000000.00" projParameter="!"/>

    <edge id=":gneJ0_0" function="internal">
        <lane id=":gneJ0_0_0" index="0" speed="6.95" length="10.24" shape="25.93,62.64 23.30,62.92 21.34,64.07 20.07,66.08 19.47,68.96"/>
    </edge>
    <edge id=":gneJ0_1" function="internal">
        <lane id=":gneJ0_1_0" index="0" speed="13.89" length="15.24" shape="25.93,62.64 22.15,62.58 18.32,62.76 14.51,63.17 10.77,63.77"/>
    </edge>
    <edge id=":gneJ0_2" function="internal">
        <lane id=":gneJ0_2_0" index="0" speed="7.84" length="5.44" shape="25.93,62.64 21.97,61.87 20.82,61.06"/>
    </edge>
    <edge id=":gneJ0_12" function="internal">
        <lane id=":gneJ0_12_0" index="0" speed="7.84" length="9.12" shape="20.82,61.06 19.32,60.00 17.99,57.05 17.99,53.01"/>
    </edge>
    <edge id=":gneJ0_3" function="internal">
        <lane id=":gneJ0_3_0" index="0" speed="6.32" length="9.04" shape="21.16,53.46 21.16,55.97 21.98,57.81 23.63,58.96 26.09,59.44"/>
    </edge>
    <edge id=":gneJ0_4" function="internal">
        <lane id=":gneJ0_4_0" index="0" speed="13.89" length="15.59" shape="21.16,53.46 19.47,68.96"/>
    </edge>
    <edge id=":gneJ0_5" function="internal">
        <lane id=":gneJ0_5_0" index="0" speed="9.63" length="5.91" shape="21.16,53.46 20.05,57.32 18.96,58.87"/>
    </edge>
    <edge id=":gneJ0_13" function="internal">
        <lane id=":gneJ0_13_0" index="0" speed="9.63" length="9.82" shape="18.96,58.87 17.95,60.32 14.85,62.47 10.77,63.77"/>
    </edge>
    <edge id=":gneJ0_6" function="internal">
        <lane id=":gneJ0_6_0" index="0" speed="8.39" length="11.74" shape="10.17,60.63 13.25,59.66 15.58,58.07 17.16,55.85 17.99,53.01"/>
    </edge>
    <edge id=":gneJ0_7" function="internal">
        <lane id=":gneJ0_7_0" index="0" speed="13.89" length="16.00" shape="10.17,60.63 14.02,60.02 18.10,59.59 22.19,59.39 26.09,59.44"/>
    </edge>
    <edge id=":gneJ0_8" function="internal">
        <lane id=":gneJ0_8_0" index="0" speed="7.61" length="6.63" shape="10.17,60.63 14.54,60.43 16.60,61.34"/>
    </edge>
    <edge id=":gneJ0_14" function="internal">
        <lane id=":gneJ0_14_0" index="0" speed="7.61" length="8.69" shape="16.60,61.34 17.54,61.75 19.19,64.59 19.47,68.96"/>
    </edge>
    <edge id=":gneJ0_9" function="internal">
        <lane id=":gneJ0_9_0" index="0" speed="6.01" length="9.08" shape="16.28,68.71 16.11,66.12 15.14,64.44 13.36,63.65 10.77,63.77"/>
    </edge>
    <edge id=":gneJ0_10" function="internal">
        <lane id=":gneJ0_10_0" index="0" speed="13.89" length="15.79" shape="16.28,68.71 17.99,53.01"/>
    </edge>
    <edge id=":gneJ0_11" function="internal">
        <lane id=":gneJ0_11_0" index="0" speed="8.37" length="6.88" shape="16.28,68.71 17.18,64.49 18.58,62.34"/>
    </edge>
    <edge id=":gneJ0_15" function="internal">
        <lane id=":gneJ0_15_0" index="0" speed="8.37" length="8.41" shape="18.58,62.34 19.11,61.54 22.08,59.85 26.09,59.44"/>
    </edge>
    <edge id=":gneJ1_0" function="internal">
        <lane id=":gneJ1_0_0" index="0" speed="13.89" length="14.38" shape="108.12,66.77 93.76,65.99"/>
    </edge>
    <edge id=":gneJ1_1" function="internal">
        <lane id=":gneJ1_1_0" index="0" speed="7.88" length="5.90" shape="108.12,66.77 104.20,65.97 102.65,64.87"/>
    </edge>
    <edge id=":gneJ1_6" function="internal">
        <lane id=":gneJ1_6_0" index="0" speed="7.88" length="8.55" shape="102.65,64.87 101.56,64.10 100.21,61.17 100.14,57.17"/>
    </edge>
    <edge id=":gneJ1_2" function="internal">
        <lane id=":gneJ1_2_0" index="0" speed="6.36" length="9.04" shape="103.32,57.57 103.36,60.07 104.21,61.91 105.85,63.07 108.31,63.57"/>
    </edge>
    <edge id=":gneJ1_3" function="internal">
        <lane id=":gneJ1_3_0" index="0" speed="8.25" length="14.29" shape="103.32,57.57 102.30,61.41 100.37,64.10 97.53,65.62 93.76,65.99"/>
    </edge>
    <edge id=":gneJ1_4" function="internal">
        <lane id=":gneJ1_4_0" index="0" speed="6.81" length="9.41" shape="93.92,62.80 96.37,62.55 98.22,61.53 99.48,59.74 100.14,57.17"/>
    </edge>
    <edge id=":gneJ1_5" function="internal">
        <lane id=":gneJ1_5_0" index="0" speed="13.89" length="14.40" shape="93.92,62.80 108.31,63.57"/>
    </edge>
    <edge id=":gneJ10_0" function="internal">
        <lane id=":gneJ10_0_0" index="0" speed="6.44" length="9.09" shape="116.93,-65.09 114.44,-65.08 112.58,-64.27 111.34,-62.64 110.73,-60.20"/>
    </edge>
    <edge id=":gneJ10_1" function="internal">
        <lane id=":gneJ10_1_0" index="0" speed="13.89" length="14.55" shape="116.93,-65.09 113.28,-65.57 109.71,-65.95 106.13,-66.25 102.45,-66.46"/>
    </edge>
    <edge id=":gneJ10_2" function="internal">
        <lane id=":gneJ10_2_0" index="0" speed="13.89" length="14.85" shape="102.61,-69.66 106.33,-69.44 110.01,-69.13 113.69,-68.74 117.39,-68.26"/>
    </edge>
    <edge id=":gneJ10_3" function="internal">
        <lane id=":gneJ10_3_0" index="0" speed="7.90" length="6.16" shape="102.61,-69.66 106.52,-68.90 108.31,-67.67"/>
    </edge>
    <edge id=":gneJ10_6" function="internal">
        <lane id=":gneJ10_6_0" index="0" speed="7.90" length="8.26" shape="108.31,-67.67 109.17,-67.08 110.58,-64.17 110.73,-60.20"/>
    </edge>
    <edge id=":gneJ10_4" function="internal">
        <lane id=":gneJ10_4_0" index="0" speed="6.39" length="9.04" shape="107.55,-60.53 107.45,-63.02 106.57,-64.84 104.91,-65.99 102.45,-66.46"/>
    </edge>
    <edge id=":gneJ10_5" function="internal">
        <lane id=":gneJ10_5_0" index="0" speed="7.95" length="14.39" shape="107.55,-60.53 108.52,-64.39 110.48,-66.96 113.44,-68.25 117.39,-68.26"/>
    </edge>
    <edge id=":gneJ11_0" function="internal">
        <lane id=":gneJ11_0_0" index="0" speed="6.64" length="9.22" shape="42.83,-69.27 40.30,-69.04 38.43,-68.08 37.22,-66.38 36.66,-63.95"/>
    </edge>
    <edge id=":gneJ11_1" function="internal">
        <lane id=":gneJ11_1_0" index="0" speed="13.89" length="14.63" shape="42.83,-69.27 28.23,-70.31"/>
    </edge>
    <edge id=":gneJ11_2" function="internal">
        <lane id=":gneJ11_2_0" index="0" speed="7.97" length="6.20" shape="42.83,-69.27 38.97,-70.01 37.09,-71.28"/>
    </edge>
    <edge id=":gneJ11_12" function="internal">
        <lane id=":gneJ11_12_0" index="0" speed="7.97" length="8.09" shape="37.09,-71.28 36.31,-71.81 34.83,-74.67 34.55,-78.59"/>
    </edge>
    <edge id=":gneJ11_3" function="internal">
        <lane id=":gneJ11_3_0" index="0" speed="6.46" length="9.05" shape="37.74,-78.37 37.92,-75.89 38.85,-74.07 40.54,-72.93 42.98,-72.47"/>
    </edge>
    <edge id=":gneJ11_4" function="internal">
        <lane id=":gneJ11_4_0" index="0" speed="13.89" length="14.45" shape="37.74,-78.37 36.66,-63.95"/>
    </edge>
    <edge id=":gneJ11_5" function="internal">
        <lane id=":gneJ11_5_0" index="0" speed="7.95" length="5.99" shape="37.74,-78.37 36.91,-74.52 35.72,-72.84"/>
    </edge>
    <edge id=":gneJ11_13" function="internal">
        <lane id=":gneJ11_13_0" index="0" speed="7.95" length="8.30" shape="35.72,-72.84 35.05,-71.90 32.16,-70.50 28.23,-70.31"/>
    </edge>
    <edge id=":gneJ11_6" function="internal">
        <lane id=":gneJ11_6_0" index="0" speed="6.45" length="9.03" shape="28.54,-73.50 31.02,-73.61 32.85,-74.50 34.02,-76.16 34.55,-78.59"/>
    </edge>
    <edge id=":gneJ11_7" function="internal">
        <lane id=":gneJ11_7_0" index="0" speed="13.89" length="14.48" shape="28.54,-73.50 42.98,-72.47"/>
    </edge>
    <edge id=":gneJ11_8" function="internal">
        <lane id=":gneJ11_8_0" index="0" speed="8.06" length="5.75" shape="28.54,-73.50 32.36,-72.58 33.84,-71.52"/>
    </edge>
    <edge id=":gneJ11_14" function="internal">
        <lane id=":gneJ11_14_0" index="0" speed="8.06" length="8.49" shape="33.84,-71.52 34.98,-70.69 36.42,-67.81 36.66,-63.95"/>
    </edge>
    <edge id=":gneJ11_9" function="internal">
        <lane id=":gneJ11_9_0" index="0" speed="6.58" length="9.14" shape="33.47,-64.21 33.31,-66.68 32.39,-68.51 30.69,-69.73 28.23,-70.31"/>
    </edge>
    <edge id=":gneJ11_10" function="internal">
        <lane id=":gneJ11_10_0" index="0" speed="13.89" length="14.42" shape="33.47,-64.21 34.55,-78.59"/>
    </edge>
    <edge id=":gneJ11_11" function="internal">
        <lane id=":gneJ11_11_0" index="0" speed="8.11" length="5.85" shape="33.47,-64.21 34.33,-67.98 35.48,-69.60"/>
    </edge>
    <edge id=":gneJ11_15" function="internal">
        <lane id=":gneJ11_15_0" index="0" speed="8.11" length="8.40" shape="35.48,-69.60 36.20,-70.61 39.08,-72.11 42.98,-72.47"/>
    </edge>
    <edge id=":gneJ2_0" function="internal">
        <lane id=":gneJ2_0_0" index="0" speed="7.20" length="10.10" shape="181.09,70.14 178.36,70.65 176.34,71.86 175.03,73.75 174.43,76.34"/>
    </edge>
    <edge id=":gneJ2_1" function="internal">
        <lane id=":gneJ2_1_0" index="0" speed="13.89" length="15.03" shape="181.09,70.14 177.34,70.29 173.59,70.34 169.83,70.29 166.08,70.13"/>
    </edge>
    <edge id=":gneJ2_2" function="internal">
        <lane id=":gneJ2_2_0" index="0" speed="7.81" length="6.21" shape="181.09,70.14 177.04,69.77 175.18,68.72"/>
    </edge>
    <edge id=":gneJ2_12" function="internal">
        <lane id=":gneJ2_12_0" index="0" speed="7.81" length="8.42" shape="175.18,68.72 174.21,68.18 172.63,65.35 172.28,61.29"/>
    </edge>
    <edge id=":gneJ2_3" function="internal">
        <lane id=":gneJ2_3_0" index="0" speed="6.28" length="9.04" shape="175.47,61.48 175.69,63.98 176.67,65.73 178.41,66.72 180.92,66.94"/>
    </edge>
    <edge id=":gneJ2_4" function="internal">
        <lane id=":gneJ2_4_0" index="0" speed="13.89" length="14.90" shape="175.47,61.48 174.43,76.34"/>
    </edge>
    <edge id=":gneJ2_5" function="internal">
        <lane id=":gneJ2_5_0" index="0" speed="8.10" length="6.29" shape="175.47,61.48 174.69,65.45 173.46,67.32"/>
    </edge>
    <edge id=":gneJ2_13" function="internal">
        <lane id=":gneJ2_13_0" index="0" speed="8.10" length="8.28" shape="173.46,67.32 172.86,68.22 169.99,69.78 166.08,70.13"/>
    </edge>
    <edge id=":gneJ2_6" function="internal">
        <lane id=":gneJ2_6_0" index="0" speed="6.62" length="9.40" shape="166.26,66.93 168.76,66.70 170.60,65.69 171.77,63.88 172.28,61.29"/>
    </edge>
    <edge id=":gneJ2_7" function="internal">
        <lane id=":gneJ2_7_0" index="0" speed="13.89" length="14.67" shape="166.26,66.93 169.96,67.09 173.59,67.15 177.23,67.09 180.92,66.94"/>
    </edge>
    <edge id=":gneJ2_8" function="internal">
        <lane id=":gneJ2_8_0" index="0" speed="7.96" length="5.69" shape="166.26,66.93 170.11,67.71 171.56,68.71"/>
    </edge>
    <edge id=":gneJ2_14" function="internal">
        <lane id=":gneJ2_14_0" index="0" speed="7.96" length="8.60" shape="171.56,68.71 172.76,69.54 174.20,72.42 174.43,76.34"/>
    </edge>
    <edge id=":gneJ2_9" function="internal">
        <lane id=":gneJ2_9_0" index="0" speed="6.45" length="9.03" shape="171.24,76.07 171.09,73.59 170.18,71.78 168.51,70.62 166.08,70.13"/>
    </edge>
    <edge id=":gneJ2_10" function="internal">
        <lane id=":gneJ2_10_0" index="0" speed="13.89" length="14.82" shape="171.24,76.07 172.28,61.29"/>
    </edge>
    <edge id=":gneJ2_11" function="internal">
        <lane id=":gneJ2_11_0" index="0" speed="8.59" length="5.88" shape="171.24,76.07 172.11,72.26 173.22,70.64"/>
    </edge>
    <edge id=":gneJ2_15" function="internal">
        <lane id=":gneJ2_15_0" index="0" speed="8.59" length="8.88" shape="173.22,70.64 174.02,69.47 176.96,67.69 180.92,66.94"/>
    </edge>
    <edge id=":gneJ3_0" function="internal">
        <lane id=":gneJ3_0_0" index="0" speed="13.89" length="14.95" shape="177.24,15.48 177.40,19.22 177.46,22.95 177.41,26.68 177.26,30.42"/>
    </edge>
    <edge id=":gneJ3_1" function="internal">
        <lane id=":gneJ3_1_0" index="0" speed="7.81" length="6.21" shape="177.24,15.48 176.89,19.54 175.84,21.40"/>
    </edge>
    <edge id=":gneJ3_6" function="internal">
        <lane id=":gneJ3_6_0" index="0" speed="7.81" length="8.44" shape="175.84,21.40 175.29,22.37 172.46,23.95 168.39,24.29"/>
    </edge>
    <edge id=":gneJ3_2" function="internal">
        <lane id=":gneJ3_2_0" index="0" speed="6.27" length="9.04" shape="168.59,21.09 171.10,20.89 172.84,19.91 173.83,18.17 174.05,15.66"/>
    </edge>
    <edge id=":gneJ3_3" function="internal">
        <lane id=":gneJ3_3_0" index="0" speed="8.09" length="14.51" shape="168.59,21.09 172.57,21.88 175.34,23.70 176.90,26.55 177.26,30.42"/>
    </edge>
    <edge id=":gneJ3_4" function="internal">
        <lane id=":gneJ3_4_0" index="0" speed="6.62" length="9.36" shape="174.06,30.24 173.83,27.77 172.80,25.96 170.99,24.80 168.39,24.29"/>
    </edge>
    <edge id=":gneJ3_5" function="internal">
        <lane id=":gneJ3_5_0" index="0" speed="13.89" length="14.59" shape="174.06,30.24 174.22,26.55 174.27,22.95 174.21,19.34 174.05,15.66"/>
    </edge>
    <edge id=":gneJ4_0" function="internal">
        <lane id=":gneJ4_0_0" index="0" speed="6.79" length="9.42" shape="113.48,20.96 111.03,21.19 109.17,22.19 107.91,23.98 107.24,26.55"/>
    </edge>
    <edge id=":gneJ4_1" function="internal">
        <lane id=":gneJ4_1_0" index="0" speed="13.89" length="14.46" shape="113.48,20.96 99.04,20.20"/>
    </edge>
    <edge id=":gneJ4_2" function="internal">
        <lane id=":gneJ4_2_0" index="0" speed="8.36" length="5.75" shape="113.48,20.96 109.77,20.18 108.15,19.08"/>
    </edge>
    <edge id=":gneJ4_12" function="internal">
        <lane id=":gneJ4_12_0" index="0" speed="8.36" length="8.64" shape="108.15,19.08 107.07,18.35 105.37,15.46 104.69,11.53"/>
    </edge>
    <edge id=":gneJ4_3" function="internal">
        <lane id=":gneJ4_3_0" index="0" speed="6.94" length="9.60" shape="107.89,11.40 108.34,14.06 109.46,16.01 111.23,17.24 113.67,17.77"/>
    </edge>
    <edge id=":gneJ4_4" function="internal">
        <lane id=":gneJ4_4_0" index="0" speed="13.89" length="15.18" shape="107.89,11.40 107.96,15.18 107.88,18.99 107.63,22.79 107.24,26.55"/>
    </edge>
    <edge id=":gneJ4_5" function="internal">
        <lane id=":gneJ4_5_0" index="0" speed="7.86" length="6.34" shape="107.89,11.40 107.47,15.40 106.32,17.41"/>
    </edge>
    <edge id=":gneJ4_13" function="internal">
        <lane id=":gneJ4_13_0" index="0" speed="7.86" length="8.18" shape="106.32,17.41 105.86,18.21 103.05,19.81 99.04,20.20"/>
    </edge>
    <edge id=":gneJ4_6" function="internal">
        <lane id=":gneJ4_6_0" index="0" speed="6.33" length="9.04" shape="99.19,17.00 101.68,16.76 103.43,15.76 104.43,14.02 104.69,11.53"/>
    </edge>
    <edge id=":gneJ4_7" function="internal">
        <lane id=":gneJ4_7_0" index="0" speed="13.89" length="14.51" shape="99.19,17.00 113.67,17.77"/>
    </edge>
    <edge id=":gneJ4_8" function="internal">
        <lane id=":gneJ4_8_0" index="0" speed="7.87" length="6.04" shape="99.19,17.00 103.14,17.76 104.80,18.90"/>
    </edge>
    <edge id=":gneJ4_14" function="internal">
        <lane id=":gneJ4_14_0" index="0" speed="7.87" length="8.48" shape="104.80,18.90 105.80,19.60 107.17,22.53 107.24,26.55"/>
    </edge>
    <edge id=":gneJ4_9" function="internal">
        <lane id=":gneJ4_9_0" index="0" speed="6.34" length="9.05" shape="104.07,26.15 104.02,23.64 103.17,21.82 101.51,20.67 99.04,20.20"/>
    </edge>
    <edge id=":gneJ4_10" function="internal">
        <lane id=":gneJ4_10_0" index="0" speed="13.89" length="14.65" shape="104.07,26.15 104.46,22.47 104.69,18.85 104.77,15.22 104.69,11.53"/>
    </edge>
    <edge id=":gneJ4_11" function="internal">
        <lane id=":gneJ4_11_0" index="0" speed="8.23" length="5.82" shape="104.07,26.15 105.09,22.29 106.16,20.81"/>
    </edge>
    <edge id=":gneJ4_15" function="internal">
        <lane id=":gneJ4_15_0" index="0" speed="8.23" length="8.52" shape="106.16,20.81 107.03,19.61 109.89,18.10 113.67,17.77"/>
    </edge>
    <edge id=":gneJ5_0" function="internal">
        <lane id=":gneJ5_0_0" index="0" speed="6.92" length="9.57" shape="32.48,17.20 29.76,17.42 27.71,18.34 26.33,19.98 25.61,22.32"/>
    </edge>
    <edge id=":gneJ5_1" function="internal">
        <lane id=":gneJ5_1_0" index="0" speed="7.82" length="14.61" shape="32.48,17.20 28.49,16.44 25.83,14.58 24.52,11.61 24.56,7.55"/>
    </edge>
    <edge id=":gneJ5_2" function="internal">
        <lane id=":gneJ5_2_0" index="0" speed="6.29" length="9.04" shape="27.72,8.03 27.70,10.54 28.51,12.38 30.15,13.53 32.62,14.00"/>
    </edge>
    <edge id=":gneJ5_3" function="internal">
        <lane id=":gneJ5_3_0" index="0" speed="13.89" length="14.45" shape="27.72,8.03 25.61,22.32"/>
    </edge>
    <edge id=":gneJ5_4" function="internal">
        <lane id=":gneJ5_4_0" index="0" speed="13.89" length="14.48" shape="22.44,21.87 24.56,7.55"/>
    </edge>
    <edge id=":gneJ5_5" function="internal">
        <lane id=":gneJ5_5_0" index="0" speed="8.34" length="5.81" shape="22.44,21.87 23.52,18.27 24.82,16.68"/>
    </edge>
    <edge id=":gneJ5_6" function="internal">
        <lane id=":gneJ5_6_0" index="0" speed="8.34" length="8.57" shape="24.82,16.68 25.58,15.77 28.61,14.34 32.62,14.00"/>
    </edge>
    <edge id=":gneJ6_0" function="internal">
        <lane id=":gneJ6_0_0" index="0" speed="6.38" length="9.04" shape="39.73,-33.07 37.24,-33.24 35.33,-32.56 34.02,-31.02 33.30,-28.63"/>
    </edge>
    <edge id=":gneJ6_1" function="internal">
        <lane id=":gneJ6_1_0" index="0" speed="8.41" length="14.20" shape="39.73,-33.07 36.00,-34.39 33.44,-36.50 32.03,-39.40 31.78,-43.09"/>
    </edge>
    <edge id=":gneJ6_2" function="internal">
        <lane id=":gneJ6_2_0" index="0" speed="6.99" length="9.52" shape="34.97,-42.84 35.15,-40.40 36.11,-38.49 37.86,-37.08 40.40,-36.20"/>
    </edge>
    <edge id=":gneJ6_3" function="internal">
        <lane id=":gneJ6_3_0" index="0" speed="13.89" length="14.31" shape="34.97,-42.84 33.30,-28.63"/>
    </edge>
    <edge id=":gneJ6_4" function="internal">
        <lane id=":gneJ6_4_0" index="0" speed="13.89" length="14.08" shape="30.14,-29.11 31.78,-43.09"/>
    </edge>
    <edge id=":gneJ6_5" function="internal">
        <lane id=":gneJ6_5_0" index="0" speed="7.90" length="5.60" shape="30.14,-29.11 31.29,-32.92 32.34,-34.15"/>
    </edge>
    <edge id=":gneJ6_6" function="internal">
        <lane id=":gneJ6_6_0" index="0" speed="7.90" length="8.83" shape="32.34,-34.15 33.38,-35.38 36.42,-36.47 40.40,-36.20"/>
    </edge>
    <edge id=":gneJ7_0" function="internal">
        <lane id=":gneJ7_0_0" index="0" speed="7.74" length="10.69" shape="103.70,-13.35 103.20,-16.11 101.97,-18.26 99.99,-19.82 97.27,-20.78"/>
    </edge>
    <edge id=":gneJ7_1" function="internal">
        <lane id=":gneJ7_1_0" index="0" speed="13.89" length="15.13" shape="103.70,-13.35 103.62,-17.12 103.68,-20.91 103.87,-24.70 104.20,-28.45"/>
    </edge>
    <edge id=":gneJ7_2" function="internal">
        <lane id=":gneJ7_2_0" index="0" speed="7.94" length="6.24" shape="103.70,-13.35 104.11,-17.30 105.24,-19.26"/>
    </edge>
    <edge id=":gneJ7_12" function="internal">
        <lane id=":gneJ7_12_0" index="0" speed="7.94" length="8.27" shape="105.24,-19.26 105.72,-20.10 108.53,-21.77 112.53,-22.29"/>
    </edge>
    <edge id=":gneJ7_3" function="internal">
        <lane id=":gneJ7_3_0" index="0" speed="6.44" length="9.16" shape="112.50,-19.09 109.96,-18.76 108.18,-17.72 107.16,-15.95 106.89,-13.47"/>
    </edge>
    <edge id=":gneJ7_4" function="internal">
        <lane id=":gneJ7_4_0" index="0" speed="13.89" length="15.34" shape="112.50,-19.09 108.70,-19.23 104.84,-19.57 101.01,-20.09 97.27,-20.78"/>
    </edge>
    <edge id=":gneJ7_5" function="internal">
        <lane id=":gneJ7_5_0" index="0" speed="7.85" length="6.43" shape="112.50,-19.09 108.50,-19.71 106.51,-21.01"/>
    </edge>
    <edge id=":gneJ7_13" function="internal">
        <lane id=":gneJ7_13_0" index="0" speed="7.85" length="8.17" shape="106.51,-21.01 105.79,-21.48 104.35,-24.39 104.20,-28.45"/>
    </edge>
    <edge id=":gneJ7_6" function="internal">
        <lane id=":gneJ7_6_0" index="0" speed="6.32" length="9.08" shape="107.38,-28.12 107.47,-25.59 108.36,-23.78 110.05,-22.68 112.53,-22.29"/>
    </edge>
    <edge id=":gneJ7_7" function="internal">
        <lane id=":gneJ7_7_0" index="0" speed="13.89" length="14.67" shape="107.38,-28.12 107.05,-24.44 106.87,-20.81 106.81,-17.17 106.89,-13.47"/>
    </edge>
    <edge id=":gneJ7_8" function="internal">
        <lane id=":gneJ7_8_0" index="0" speed="7.82" length="5.67" shape="107.38,-28.12 106.38,-24.18 105.38,-22.92"/>
    </edge>
    <edge id=":gneJ7_14" function="internal">
        <lane id=":gneJ7_14_0" index="0" speed="7.82" length="8.94" shape="105.38,-22.92 104.37,-21.64 101.33,-20.51 97.27,-20.78"/>
    </edge>
    <edge id=":gneJ7_9" function="internal">
        <lane id=":gneJ7_9_0" index="0" speed="6.29" length="9.04" shape="97.94,-23.91 100.45,-23.74 102.33,-24.45 103.58,-26.02 104.20,-28.45"/>
    </edge>
    <edge id=":gneJ7_10" function="internal">
        <lane id=":gneJ7_10_0" index="0" speed="13.89" length="14.70" shape="97.94,-23.91 101.58,-23.23 105.20,-22.73 108.83,-22.42 112.53,-22.29"/>
    </edge>
    <edge id=":gneJ7_11" function="internal">
        <lane id=":gneJ7_11_0" index="0" speed="9.06" length="5.90" shape="97.94,-23.91 101.73,-22.57 103.20,-21.40"/>
    </edge>
    <edge id=":gneJ7_15" function="internal">
        <lane id=":gneJ7_15_0" index="0" speed="9.06" length="9.06" shape="103.20,-21.40 104.48,-20.38 106.20,-17.35 106.89,-13.47"/>
    </edge>
    <edge id=":gneJ8_0" function="internal">
        <lane id=":gneJ8_0_0" index="0" speed="6.52" length="8.61" shape="172.44,-13.24 171.98,-15.54 170.91,-17.18 169.22,-18.18 166.90,-18.53"/>
    </edge>
    <edge id=":gneJ8_1" function="internal">
        <lane id=":gneJ8_1_0" index="0" speed="13.89" length="13.38" shape="172.44,-13.24 172.34,-16.74 172.49,-19.93 172.93,-23.09 173.71,-26.50"/>
    </edge>
    <edge id=":gneJ8_2" function="internal">
        <lane id=":gneJ8_2_0" index="0" speed="13.89" length="12.38" shape="176.80,-25.68 176.04,-22.43 175.63,-19.61 175.52,-16.76 175.63,-13.42"/>
    </edge>
    <edge id=":gneJ8_3" function="internal">
        <lane id=":gneJ8_3_0" index="0" speed="8.56" length="5.15" shape="176.80,-25.68 175.46,-22.52 174.29,-21.26"/>
    </edge>
    <edge id=":gneJ8_6" function="internal">
        <lane id=":gneJ8_6_0" index="0" speed="8.56" length="8.13" shape="174.29,-21.26 173.37,-20.28 170.52,-18.95 166.90,-18.53"/>
    </edge>
    <edge id=":gneJ8_4" function="internal">
        <lane id=":gneJ8_4_0" index="0" speed="7.15" length="9.01" shape="166.94,-21.73 169.42,-22.01 171.38,-22.89 172.80,-24.39 173.71,-26.50"/>
    </edge>
    <edge id=":gneJ8_5" function="internal">
        <lane id=":gneJ8_5_0" index="0" speed="8.02" length="13.52" shape="166.94,-21.73 170.57,-21.18 173.23,-19.61 174.92,-17.02 175.63,-13.42"/>
    </edge>
    <edge id=":gneJ9_0" function="internal">
        <lane id=":gneJ9_0_0" index="0" speed="7.80" length="10.77" shape="190.83,-55.62 188.05,-55.23 185.83,-54.07 184.17,-52.14 183.08,-49.45"/>
    </edge>
    <edge id=":gneJ9_1" function="internal">
        <lane id=":gneJ9_1_0" index="0" speed="13.89" length="15.16" shape="190.83,-55.62 187.06,-55.68 183.26,-55.88 179.47,-56.22 175.72,-56.69"/>
    </edge>
    <edge id=":gneJ9_2" function="internal">
        <lane id=":gneJ9_2_0" index="0" speed="7.95" length="6.24" shape="190.83,-55.62 186.91,-56.18 184.98,-57.39"/>
    </edge>
    <edge id=":gneJ9_12" function="internal">
        <lane id=":gneJ9_12_0" index="0" speed="7.95" length="8.27" shape="184.98,-57.39 184.16,-57.90 182.60,-60.77 182.22,-64.79"/>
    </edge>
    <edge id=":gneJ9_3" function="internal">
        <lane id=":gneJ9_3_0" index="0" speed="6.45" length="9.17" shape="185.41,-64.64 185.65,-62.09 186.63,-60.27 188.36,-59.18 190.82,-58.82"/>
    </edge>
    <edge id=":gneJ9_4" function="internal">
        <lane id=":gneJ9_4_0" index="0" speed="13.89" length="15.40" shape="185.41,-64.64 185.13,-60.84 184.64,-56.98 183.95,-53.16 183.08,-49.45"/>
    </edge>
    <edge id=":gneJ9_5" function="internal">
        <lane id=":gneJ9_5_0" index="0" speed="7.85" length="6.45" shape="185.41,-64.64 184.65,-60.67 183.26,-58.70"/>
    </edge>
    <edge id=":gneJ9_13" function="internal">
        <lane id=":gneJ9_13_0" index="0" speed="7.85" length="8.17" shape="183.26,-58.70 182.78,-58.02 179.80,-56.69 175.72,-56.69"/>
    </edge>
    <edge id=":gneJ9_6" function="internal">
        <lane id=":gneJ9_6_0" index="0" speed="6.33" length="9.10" shape="176.18,-59.86 178.72,-59.86 180.57,-60.68 181.74,-62.32 182.22,-64.79"/>
    </edge>
    <edge id=":gneJ9_7" function="internal">
        <lane id=":gneJ9_7_0" index="0" speed="13.89" length="14.70" shape="176.18,-59.86 179.85,-59.40 183.48,-59.07 187.12,-58.88 190.82,-58.82"/>
    </edge>
    <edge id=":gneJ9_8" function="internal">
        <lane id=":gneJ9_8_0" index="0" speed="7.81" length="5.68" shape="176.18,-59.86 180.10,-58.71 181.31,-57.67"/>
    </edge>
    <edge id=":gneJ9_14" function="internal">
        <lane id=":gneJ9_14_0" index="0" speed="7.81" length="8.97" shape="181.31,-57.67 182.55,-56.59 183.55,-53.50 183.08,-49.45"/>
    </edge>
    <edge id=":gneJ9_9" function="internal">
        <lane id=":gneJ9_9_0" index="0" speed="6.27" length="9.04" shape="179.98,-50.26 180.27,-52.77 179.66,-54.67 178.14,-55.98 175.72,-56.69"/>
    </edge>
    <edge id=":gneJ9_10" function="internal">
        <lane id=":gneJ9_10_0" index="0" speed="13.89" length="14.72" shape="179.98,-50.26 180.84,-53.87 181.49,-57.47 181.95,-61.09 182.22,-64.79"/>
    </edge>
    <edge id=":gneJ9_11" function="internal">
        <lane id=":gneJ9_11_0" index="0" speed="9.12" length="5.90" shape="179.98,-50.26 181.51,-54.00 182.73,-55.41"/>
    </edge>
    <edge id=":gneJ9_15" function="internal">
        <lane id=":gneJ9_15_0" index="0" speed="9.12" length="9.10" shape="182.73,-55.41 183.82,-56.67 186.93,-58.28 190.82,-58.82"/>
    </edge>

    <edge id="-gneE0" from="gneJ1" to="gneJ0" priority="-1">
        <lane id="-gneE0_0" index="0" speed="13.89" length="67.92" shape="93.76,65.99 25.93,62.64"/>
    </edge>
    <edge id="-gneE1" from="gneJ2" to="gneJ1" priority="-1">
        <lane id="-gneE1_0" index="0" speed="13.89" length="58.05" shape="166.08,70.13 108.12,66.77"/>
    </edge>
    <edge id="-gneE10" from="gneJ11" to="gneJ10" priority="-1">
        <lane id="-gneE10_0" index="0" speed="13.89" length="59.69" shape="42.98,-72.47 102.61,-69.66"/>
    </edge>
    <edge id="-gneE11" from="gneJ6" to="gneJ11" priority="-1">
        <lane id="-gneE11_0" index="0" speed="13.89" length="21.18" shape="31.78,-43.09 33.47,-64.21"/>
    </edge>
    <edge id="-gneE12" from="gneJ0" to="gneJ5" priority="-1">
        <lane id="-gneE12_0" index="0" speed="13.89" length="31.46" shape="17.99,53.01 22.44,21.87"/>
    </edge>
    <edge id="-gneE13" from="gneJ12" to="gneJ0" priority="-1">
        <lane id="-gneE13_0" index="0" speed="13.89" length="47.13" shape="-36.13,69.45 10.17,60.63"/>
    </edge>
    <edge id="-gneE14" from="gneJ4" to="gneJ1" priority="-1">
        <lane id="-gneE14_0" index="0" speed="13.89" length="31.27" shape="107.24,26.55 103.32,57.57"/>
    </edge>
    <edge id="-gneE15" from="gneJ7" to="gneJ4" priority="-1">
        <lane id="-gneE15_0" index="0" speed="13.89" length="24.89" shape="106.89,-13.47 107.89,11.40"/>
    </edge>
    <edge id="-gneE16" from="gneJ10" to="gneJ7" priority="-1">
        <lane id="-gneE16_0" index="0" speed="13.89" length="32.25" shape="110.73,-60.20 107.38,-28.12"/>
    </edge>
    <edge id="-gneE17" from="gneJ13" to="gneJ9" priority="-1">
        <lane id="-gneE17_0" index="0" speed="13.89" length="47.04" shape="237.87,-55.75 190.83,-55.62"/>
    </edge>